7-4
 Wcorina  11170919323D 1   1.00000     0.00000              
CORINA evaluation license 3.46 0067  05.08.2008
 39 42  0  0  0  0  0  0  0  0999 V2000
   -0.0241    1.5164    0.0515 N   0  0  0  0  0  0
   -0.0213    0.2297    0.3762 C   0  0  0  0  0  0
    1.0961   -0.4571    0.5469 N   0  0  0  0  0  0
    2.2827    0.1249    0.3970 C   0  0  0  0  0  0
    2.3243    1.4885    0.0526 C   0  0  0  0  0  0
    1.1152    2.1792   -0.1188 C   0  0  0  0  0  0
    1.1090    3.5199   -0.4580 N   0  0  0  0  0  0
    3.7393    1.8209   -0.0341 C   0  0  0  0  0  0
    4.4187    0.6937    0.2479 C   0  0  0  0  0  0
    3.5543   -0.3020    0.5018 O   0  0  0  0  0  0
    5.9285    0.6280    0.2575 C   0  0  0  0  0  0
    6.4503    1.8043   -0.4569 N   0  0  0  0  0  0
    5.8668    3.0507    0.0589 C   0  0  0  0  0  0
    4.3931    3.1368   -0.3638 C   0  0  0  0  0  0
    7.9176    1.8468   -0.3997 C   0  0  0  0  0  0
    8.4872    0.8273   -1.3521 C   0  0  0  0  0  0
    9.0268   -0.3483   -0.8644 C   0  0  0  0  0  0
    9.5489   -1.2840   -1.7372 C   0  0  0  0  0  0
    9.5318   -1.0446   -3.1000 C   0  0  0  0  0  0
    8.9921    0.1314   -3.5886 C   0  0  0  0  0  0
    8.4647    1.0654   -2.7147 C   0  0  0  0  0  0
    7.7811    2.5388   -3.3274 Cl  0  0  0  0  0  0
   10.1882   -2.2198   -4.1962 Cl  0  0  0  0  0  0
   -1.2337   -0.4181    0.5430 N   0  0  0  0  0  0
    0.2667    3.9869   -0.5741 H   0  0  0  0  0  0
    1.9468    3.9933   -0.5797 H   0  0  0  0  0  0
    6.2889    0.6344    1.2862 H   0  0  0  0  0  0
    6.2588   -0.2816   -0.2440 H   0  0  0  0  0  0
    5.9342    3.0608    1.1468 H   0  0  0  0  0  0
    6.4119    3.9027   -0.3473 H   0  0  0  0  0  0
    4.3270    3.3230   -1.4357 H   0  0  0  0  0  0
    3.8994    3.9408    0.1820 H   0  0  0  0  0  0
    8.2635    2.8411   -0.6823 H   0  0  0  0  0  0
    8.2484    1.6216    0.6142 H   0  0  0  0  0  0
    9.0407   -0.5355    0.1992 H   0  0  0  0  0  0
    9.9706   -2.2021   -1.3556 H   0  0  0  0  0  0
    8.9788    0.3188   -4.6521 H   0  0  0  0  0  0
   -2.0641    0.0685    0.4225 H   0  0  0  0  0  0
   -1.2525   -1.3584    0.7803 H   0  0  0  0  0  0
  1  2  1  0  0  0
  1  6  2  0  0  0
  2  3  2  0  0  0
  2 24  1  0  0  0
  3  4  1  0  0  0
  4  5  2  0  0  0
  4 10  1  0  0  0
  5  6  1  0  0  0
  5  8  1  0  0  0
  6  7  1  0  0  0
  7 25  1  0  0  0
  7 26  1  0  0  0
  8  9  2  0  0  0
  8 14  1  0  0  0
  9 10  1  0  0  0
  9 11  1  0  0  0
 11 12  1  0  0  0
 11 27  1  0  0  0
 11 28  1  0  0  0
 12 13  1  0  0  0
 12 15  1  0  0  0
 13 14  1  0  0  0
 13 29  1  0  0  0
 13 30  1  0  0  0
 14 31  1  0  0  0
 14 32  1  0  0  0
 15 16  1  0  0  0
 15 33  1  0  0  0
 15 34  1  0  0  0
 16 17  1  0  0  0
 16 21  2  0  0  0
 17 18  2  0  0  0
 17 35  1  0  0  0
 18 19  1  0  0  0
 18 36  1  0  0  0
 19 20  2  0  0  0
 19 23  1  0  0  0
 20 21  1  0  0  0
 20 37  1  0  0  0
 21 22  1  0  0  0
 24 38  1  0  0  0
 24 39  1  0  0  0
M  END
>  <Activity>
4.29328

>  <set_rl>
1

>  <Min_dist>
999.9

>  <Avg_dist>
999.9

>  <PC_uM>
22.6

>  <TG_uM>
13.1

>  <RL_uM>
50.9

$$$$
7-5
 Wcorina  11170919323D 1   1.00000     0.00000              
CORINA evaluation license 3.46 0067  05.08.2008
 39 42  0  0  0  0  0  0  0  0999 V2000
   -0.0159    1.3228    0.0093 N   0  0  0  0  0  0
    0.0021   -0.0041    0.0020 C   0  0  0  0  0  0
    1.1274   -0.6988   -0.0121 N   0  0  0  0  0  0
    2.3070   -0.0843   -0.0199 C   0  0  0  0  0  0
    2.3325    1.3225   -0.0128 C   0  0  0  0  0  0
    1.1153    2.0202    0.0023 C   0  0  0  0  0  0
    1.0933    3.4030    0.0091 N   0  0  0  0  0  0
    3.7435    1.6823   -0.0233 C   0  0  0  0  0  0
    4.4361    0.5283   -0.0368 C   0  0  0  0  0  0
    3.5835   -0.5091   -0.0339 O   0  0  0  0  0  0
    5.9464    0.4797   -0.0543 C   0  0  0  0  0  0
    6.4503    1.8031   -0.4556 N   0  0  0  0  0  0
    5.8600    2.8742    0.3595 C   0  0  0  0  0  0
    4.3816    3.0463   -0.0181 C   0  0  0  0  0  0
    7.9176    1.8468   -0.3997 C   0  0  0  0  0  0
    8.4878    0.9160   -1.4386 C   0  0  0  0  0  0
    8.7530    1.3822   -2.7130 C   0  0  0  0  0  0
    9.2760    0.5296   -3.6667 C   0  0  0  0  0  0
    9.5344   -0.7913   -3.3466 C   0  0  0  0  0  0
    9.2689   -1.2581   -2.0706 C   0  0  0  0  0  0
    8.7507   -0.4018   -1.1155 C   0  0  0  0  0  0
    9.5926   -2.9153   -1.6672 Cl  0  0  0  0  0  0
   10.1907   -1.8628   -4.5443 Cl  0  0  0  0  0  0
   -1.2025   -0.6869    0.0100 N   0  0  0  0  0  0
    0.2456    3.8745    0.0192 H   0  0  0  0  0  0
    1.9254    3.9013    0.0038 H   0  0  0  0  0  0
    6.3166    0.2329    0.9408 H   0  0  0  0  0  0
    6.2805   -0.2719   -0.7696 H   0  0  0  0  0  0
    5.9378    2.6129    1.4148 H   0  0  0  0  0  0
    6.3932    3.8069    0.1754 H   0  0  0  0  0  0
    4.3035    3.4937   -1.0090 H   0  0  0  0  0  0
    3.8856    3.6827    0.7147 H   0  0  0  0  0  0
    8.2585    2.8633   -0.5963 H   0  0  0  0  0  0
    8.2529    1.5361    0.5898 H   0  0  0  0  0  0
    8.5510    2.4132   -2.9634 H   0  0  0  0  0  0
    9.4825    0.8944   -4.6621 H   0  0  0  0  0  0
    8.5477   -0.7641   -0.1185 H   0  0  0  0  0  0
   -2.0386   -0.1952    0.0207 H   0  0  0  0  0  0
   -1.2103   -1.6568    0.0048 H   0  0  0  0  0  0
  1  2  1  0  0  0
  1  6  2  0  0  0
  2  3  2  0  0  0
  2 24  1  0  0  0
  3  4  1  0  0  0
  4  5  2  0  0  0
  4 10  1  0  0  0
  5  6  1  0  0  0
  5  8  1  0  0  0
  6  7  1  0  0  0
  7 25  1  0  0  0
  7 26  1  0  0  0
  8  9  2  0  0  0
  8 14  1  0  0  0
  9 10  1  0  0  0
  9 11  1  0  0  0
 11 12  1  0  0  0
 11 27  1  0  0  0
 11 28  1  0  0  0
 12 13  1  0  0  0
 12 15  1  0  0  0
 13 14  1  0  0  0
 13 29  1  0  0  0
 13 30  1  0  0  0
 14 31  1  0  0  0
 14 32  1  0  0  0
 15 16  1  0  0  0
 15 33  1  0  0  0
 15 34  1  0  0  0
 16 17  1  0  0  0
 16 21  2  0  0  0
 17 18  2  0  0  0
 17 35  1  0  0  0
 18 19  1  0  0  0
 18 36  1  0  0  0
 19 20  2  0  0  0
 19 23  1  0  0  0
 20 21  1  0  0  0
 20 22  1  0  0  0
 21 37  1  0  0  0
 24 38  1  0  0  0
 24 39  1  0  0  0
M  END
>  <Activity>
4.68613

>  <set_rl>
1

>  <Min_dist>
999.9

>  <Avg_dist>
999.9

>  <PC_uM>
24.1

>  <TG_uM>
22.3

>  <RL_uM>
20.6

$$$$
1-98535
 Wcorina  11170919323D 1   1.00000     0.00000              
CORINA evaluation license 3.46 0067  05.08.2008
 49 51  0  0  0  0  0  0  0  0999 V2000
   -0.0178    1.4600    0.0101 C   0  0  0  0  0  0  0  0  0  0  0  0
    0.0021   -0.0041    0.0020 C   0  0  0  0  0  0  0  0  0  0  0  0
    1.1840   -0.6041   -0.0124 N   0  0  0  0  0  0  0  0  0  0  0  0
    2.3138    0.0967   -0.0194 C   0  0  0  0  0  0  0  0  0  0  0  0
    2.3522    1.4141   -0.0127 N   0  0  0  0  0  0  0  0  0  0  0  0
    1.2261    2.1386    0.0018 C   0  0  0  0  0  0  0  0  0  0  0  0
    1.2450    3.4737    0.0088 N   0  0  0  0  0  0  0  0  0  0  0  0
    0.1095    4.1391    0.0232 C   0  0  0  0  0  0  0  0  0  0  0  0
   -1.1119    3.4663    0.0313 C   0  0  0  0  0  0  0  0  0  0  0  0
   -1.1531    2.1508    0.0300 N   0  0  0  0  0  0  0  0  0  0  0  0
   -2.3971    4.2531    0.0478 C   0  0  0  0  0  0  0  0  0  0  0  0
   -2.8896    4.4127   -1.3227 N   0  0  0  0  0  0  0  0  0  0  0  0
   -4.0694    5.1089   -1.5608 C   0  0  0  0  0  0  0  0  0  0  0  0
   -4.5361    5.2598   -2.8638 C   0  0  0  0  0  0  0  0  0  0  0  0
   -5.7034    5.9482   -3.1027 C   0  0  0  0  0  0  0  0  0  0  0  0
   -6.4207    6.4964   -2.0354 C   0  0  0  0  0  0  0  0  0  0  0  0
   -5.9495    6.3432   -0.7282 C   0  0  0  0  0  0  0  0  0  0  0  0
   -4.7845    5.6488   -0.4953 C   0  0  0  0  0  0  0  0  0  0  0  0
   -7.6722    7.2355   -2.2880 C   0  0  0  0  0  0  0  0  0  0  0  0
   -8.0808    7.3683   -3.4256 O   0  0  0  0  0  0  0  0  0  0  0  0
   -8.3627    7.7634   -1.2580 N   0  0  0  0  0  0  0  0  0  0  0  0
   -9.6056    8.4974   -1.5090 C   0  0  0  0  0  0  0  0  0  0  0  0
  -10.7545    7.5258   -1.5929 C   0  0  0  0  0  0  0  0  0  0  0  0
  -10.5556    6.3418   -1.4571 O   0  0  0  0  0  0  0  0  0  0  0  0
  -11.9988    7.9758   -1.8186 O   0  0  0  0  0  0  0  0  0  0  0  0
   -9.8546    9.4842   -0.3666 C   0  0  0  0  0  0  0  0  0  0  0  0
   -8.7688   10.5293   -0.3599 C   0  0  0  0  0  0  0  0  0  0  0  0
   -7.8864   10.4889   -1.1843 O   0  0  0  0  0  0  0  0  0  0  0  0
   -8.7821   11.5050    0.5618 O   0  0  0  0  0  0  0  0  0  0  0  0
    3.5113   -0.5926   -0.0340 N   0  0  0  0  0  0  0  0  0  0  0  0
   -1.1671   -0.7327    0.0097 N   0  0  0  0  0  0  0  0  0  0  0  0
    0.1239    5.2190    0.0291 H   0  0  0  0  0  0  0  0  0  0  0  0
   -3.1408    3.7217    0.6415 H   0  0  0  0  0  0  0  0  0  0  0  0
   -2.2165    5.2348    0.4856 H   0  0  0  0  0  0  0  0  0  0  0  0
   -2.3926    4.0327   -2.0640 H   0  0  0  0  0  0  0  0  0  0  0  0
   -3.9812    4.8363   -3.6879 H   0  0  0  0  0  0  0  0  0  0  0  0
   -6.0647    6.0652   -4.1137 H   0  0  0  0  0  0  0  0  0  0  0  0
   -6.5013    6.7659    0.0984 H   0  0  0  0  0  0  0  0  0  0  0  0
   -4.4224    5.5260    0.5147 H   0  0  0  0  0  0  0  0  0  0  0  0
   -8.0368    7.6575   -0.3506 H   0  0  0  0  0  0  0  0  0  0  0  0
   -9.5218    9.0431   -2.4488 H   0  0  0  0  0  0  0  0  0  0  0  0
  -10.8220    9.9663   -0.5073 H   0  0  0  0  0  0  0  0  0  0  0  0
   -9.8499    8.9493    0.5831 H   0  0  0  0  0  0  0  0  0  0  0  0
    3.5125   -1.5626   -0.0389 H   0  0  0  0  0  0  0  0  0  0  0  0
    4.3507   -0.1065   -0.0393 H   0  0  0  0  0  0  0  0  0  0  0  0
   -2.0229   -0.2763    0.0206 H   0  0  0  0  0  0  0  0  0  0  0  0
   -1.1344   -1.7022    0.0041 H   0  0  0  0  0  0  0  0  0  0  0  0
  -12.7032    7.3148   -1.8642 H   0  0  0  0  0  0  0  0  0  0  0  0
   -8.0647   12.1524    0.5261 H   0  0  0  0  0  0  0  0  0  0  0  0
  1  2  1  0  0  0  0
  1  6  2  0  0  0  0
  1 10  1  0  0  0  0
  2  3  2  0  0  0  0
  2 31  1  0  0  0  0
  3  4  1  0  0  0  0
  4  5  2  0  0  0  0
  4 30  1  0  0  0  0
  5  6  1  0  0  0  0
  6  7  1  0  0  0  0
  7  8  2  0  0  0  0
  8  9  1  0  0  0  0
  8 32  1  0  0  0  0
  9 10  2  0  0  0  0
  9 11  1  0  0  0  0
 11 12  1  0  0  0  0
 11 33  1  0  0  0  0
 11 34  1  0  0  0  0
 12 13  1  0  0  0  0
 12 35  1  0  0  0  0
 13 14  1  0  0  0  0
 13 18  2  0  0  0  0
 14 15  2  0  0  0  0
 14 36  1  0  0  0  0
 15 16  1  0  0  0  0
 15 37  1  0  0  0  0
 16 17  2  0  0  0  0
 16 19  1  0  0  0  0
 17 18  1  0  0  0  0
 17 38  1  0  0  0  0
 18 39  1  0  0  0  0
 19 20  2  0  0  0  0
 19 21  1  0  0  0  0
 21 22  1  0  0  0  0
 21 40  1  0  0  0  0
 22 23  1  0  0  0  0
 22 26  1  0  0  0  0
 22 41  1  0  0  0  0
 23 24  2  0  0  0  0
 23 25  1  0  0  0  0
 25 48  1  0  0  0  0
 26 27  1  0  0  0  0
 26 42  1  0  0  0  0
 26 43  1  0  0  0  0
 27 28  2  0  0  0  0
 27 29  1  0  0  0  0
 29 49  1  0  0  0  0
 30 44  1  0  0  0  0
 30 45  1  0  0  0  0
 31 46  1  0  0  0  0
 31 47  1  0  0  0  0
M  END
>  <Activity>
7.76955

>  <set_rl>
1

>  <Min_dist>
999.9

>  <Avg_dist>
999.9

>  <PC_uM>
0.028

>  <TG_uM>
N/A

>  <RL_uM>
0.017

$$$$
1-107146
 Wcorina  11170919323D 1   1.00000     0.00000              
CORINA evaluation license 3.46 0067  05.08.2008
 55 57  0  0  0  0  0  0  0  0999 V2000
   -0.0178    1.4600    0.0101 C   0  0  0  0  0  0  0  0  0  0  0  0
    0.0021   -0.0041    0.0020 C   0  0  0  0  0  0  0  0  0  0  0  0
    1.1840   -0.6041   -0.0124 N   0  0  0  0  0  0  0  0  0  0  0  0
    2.3138    0.0967   -0.0194 C   0  0  0  0  0  0  0  0  0  0  0  0
    2.3522    1.4141   -0.0127 N   0  0  0  0  0  0  0  0  0  0  0  0
    1.2261    2.1386    0.0018 C   0  0  0  0  0  0  0  0  0  0  0  0
    1.2450    3.4737    0.0088 N   0  0  0  0  0  0  0  0  0  0  0  0
    0.1095    4.1391    0.0232 C   0  0  0  0  0  0  0  0  0  0  0  0
   -1.1119    3.4663    0.0313 C   0  0  0  0  0  0  0  0  0  0  0  0
   -1.1531    2.1508    0.0300 N   0  0  0  0  0  0  0  0  0  0  0  0
   -2.3971    4.2531    0.0478 C   0  0  0  0  0  0  0  0  0  0  0  0
   -2.8909    4.4132   -1.3265 N   0  0  0  0  0  0  0  0  0  0  0  0
   -4.1813    4.9351   -1.3352 C   0  0  0  0  0  0  0  0  0  0  0  0
   -4.4309    6.1794   -0.7649 C   0  0  0  0  0  0  0  0  0  0  0  0
   -5.7057    6.6987   -0.7717 C   0  0  0  0  0  0  0  0  0  0  0  0
   -6.7512    5.9752   -1.3523 C   0  0  0  0  0  0  0  0  0  0  0  0
   -6.4990    4.7249   -1.9250 C   0  0  0  0  0  0  0  0  0  0  0  0
   -5.2198    4.2127   -1.9203 C   0  0  0  0  0  0  0  0  0  0  0  0
   -4.9732    3.0072   -2.4781 F   0  0  0  0  0  0  0  0  0  0  0  0
   -8.1183    6.5295   -1.3603 C   0  0  0  0  0  0  0  0  0  0  0  0
   -8.3364    7.6168   -0.8616 O   0  0  0  0  0  0  0  0  0  0  0  0
   -9.1255    5.8307   -1.9205 N   0  0  0  0  0  0  0  0  0  0  0  0
  -10.4831    6.3812   -1.9284 C   0  0  0  0  0  0  0  0  0  0  0  0
  -10.6482    7.2938   -3.1163 C   0  0  0  0  0  0  0  0  0  0  0  0
   -9.7264    7.4666   -3.8780 O   0  0  0  0  0  0  0  0  0  0  0  0
  -11.8193    7.9146   -3.3281 O   0  0  0  0  0  0  0  0  0  0  0  0
  -11.4963    5.2383   -2.0186 C   0  0  0  0  0  0  0  0  0  0  0  0
  -11.4139    4.3826   -0.7530 C   0  0  0  0  0  0  0  0  0  0  0  0
  -12.4119    3.2569   -0.8418 C   0  0  0  0  0  0  0  0  0  0  0  0
  -13.1167    3.1500   -1.8174 O   0  0  0  0  0  0  0  0  0  0  0  0
  -12.5177    2.3730    0.1628 O   0  0  0  0  0  0  0  0  0  0  0  0
   -1.9795    5.2491   -2.1193 C   0  0  0  0  0  0  0  0  0  0  0  0
    3.5113   -0.5926   -0.0340 N   0  0  0  0  0  0  0  0  0  0  0  0
   -1.1671   -0.7327    0.0097 N   0  0  0  0  0  0  0  0  0  0  0  0
    0.1239    5.2190    0.0291 H   0  0  0  0  0  0  0  0  0  0  0  0
   -3.1408    3.7217    0.6415 H   0  0  0  0  0  0  0  0  0  0  0  0
   -2.2165    5.2348    0.4856 H   0  0  0  0  0  0  0  0  0  0  0  0
   -3.6233    6.7386   -0.3159 H   0  0  0  0  0  0  0  0  0  0  0  0
   -5.8980    7.6646   -0.3284 H   0  0  0  0  0  0  0  0  0  0  0  0
   -7.3048    4.1633   -2.3740 H   0  0  0  0  0  0  0  0  0  0  0  0
   -8.9515    4.9634   -2.3183 H   0  0  0  0  0  0  0  0  0  0  0  0
  -10.6520    6.9449   -1.0109 H   0  0  0  0  0  0  0  0  0  0  0  0
  -12.5010    5.6501   -2.1140 H   0  0  0  0  0  0  0  0  0  0  0  0
  -11.2721    4.6219   -2.8892 H   0  0  0  0  0  0  0  0  0  0  0  0
  -10.4092    3.9708   -0.6576 H   0  0  0  0  0  0  0  0  0  0  0  0
  -11.6381    4.9991    0.1176 H   0  0  0  0  0  0  0  0  0  0  0  0
   -0.9954    4.7818   -2.1538 H   0  0  0  0  0  0  0  0  0  0  0  0
   -2.3689    5.3513   -3.1323 H   0  0  0  0  0  0  0  0  0  0  0  0
   -1.8981    6.2343   -1.6602 H   0  0  0  0  0  0  0  0  0  0  0  0
    3.5125   -1.5626   -0.0389 H   0  0  0  0  0  0  0  0  0  0  0  0
    4.3507   -0.1065   -0.0393 H   0  0  0  0  0  0  0  0  0  0  0  0
   -2.0229   -0.2763    0.0206 H   0  0  0  0  0  0  0  0  0  0  0  0
   -1.1344   -1.7022    0.0041 H   0  0  0  0  0  0  0  0  0  0  0  0
  -11.8773    8.4900   -4.1030 H   0  0  0  0  0  0  0  0  0  0  0  0
  -13.1720    1.6683    0.0604 H   0  0  0  0  0  0  0  0  0  0  0  0
  1  2  1  0  0  0  0
  1  6  2  0  0  0  0
  1 10  1  0  0  0  0
  2  3  2  0  0  0  0
  2 34  1  0  0  0  0
  3  4  1  0  0  0  0
  4  5  2  0  0  0  0
  4 33  1  0  0  0  0
  5  6  1  0  0  0  0
  6  7  1  0  0  0  0
  7  8  2  0  0  0  0
  8  9  1  0  0  0  0
  8 35  1  0  0  0  0
  9 10  2  0  0  0  0
  9 11  1  0  0  0  0
 11 12  1  0  0  0  0
 11 36  1  0  0  0  0
 11 37  1  0  0  0  0
 12 13  1  0  0  0  0
 12 32  1  0  0  0  0
 13 14  1  0  0  0  0
 13 18  2  0  0  0  0
 14 15  2  0  0  0  0
 14 38  1  0  0  0  0
 15 16  1  0  0  0  0
 15 39  1  0  0  0  0
 16 17  2  0  0  0  0
 16 20  1  0  0  0  0
 17 18  1  0  0  0  0
 17 40  1  0  0  0  0
 18 19  1  0  0  0  0
 20 21  2  0  0  0  0
 20 22  1  0  0  0  0
 22 23  1  0  0  0  0
 22 41  1  0  0  0  0
 23 24  1  0  0  0  0
 23 27  1  0  0  0  0
 23 42  1  0  0  0  0
 24 25  2  0  0  0  0
 24 26  1  0  0  0  0
 26 54  1  0  0  0  0
 27 28  1  0  0  0  0
 27 43  1  0  0  0  0
 27 44  1  0  0  0  0
 28 29  1  0  0  0  0
 28 45  1  0  0  0  0
 28 46  1  0  0  0  0
 29 30  2  0  0  0  0
 29 31  1  0  0  0  0
 31 55  1  0  0  0  0
 32 47  1  0  0  0  0
 32 48  1  0  0  0  0
 32 49  1  0  0  0  0
 33 50  1  0  0  0  0
 33 51  1  0  0  0  0
 34 52  1  0  0  0  0
 34 53  1  0  0  0  0
M  END
>  <Activity>
9.4437

>  <set_rl>
1

>  <Min_dist>
999.9

>  <Avg_dist>
999.9

>  <PC_uM>
0.00072

>  <TG_uM>
0.0119

>  <RL_uM>
0.00036

$$$$
1-117356
 Wcorina  11170919323D 1   1.00000     0.00000              
CORINA evaluation license 3.46 0067  05.08.2008
 55 57  0  0  0  0  0  0  0  0999 V2000
   -0.0178    1.4600    0.0101 C   0  0  0  0  0  0  0  0  0  0  0  0
    0.0021   -0.0041    0.0020 C   0  0  0  0  0  0  0  0  0  0  0  0
    1.1840   -0.6041   -0.0124 N   0  0  0  0  0  0  0  0  0  0  0  0
    2.3138    0.0967   -0.0194 C   0  0  0  0  0  0  0  0  0  0  0  0
    2.3522    1.4141   -0.0127 N   0  0  0  0  0  0  0  0  0  0  0  0
    1.2261    2.1386    0.0018 C   0  0  0  0  0  0  0  0  0  0  0  0
    1.2450    3.4737    0.0088 N   0  0  0  0  0  0  0  0  0  0  0  0
    0.1095    4.1391    0.0232 C   0  0  0  0  0  0  0  0  0  0  0  0
   -1.1119    3.4663    0.0313 C   0  0  0  0  0  0  0  0  0  0  0  0
   -1.1531    2.1508    0.0300 N   0  0  0  0  0  0  0  0  0  0  0  0
   -2.3971    4.2531    0.0478 C   0  0  0  0  0  0  0  0  0  0  0  0
   -2.8896    4.4127   -1.3227 N   0  0  0  0  0  0  0  0  0  0  0  0
   -3.7486    3.4648   -1.8676 C   0  0  0  0  0  0  0  0  0  0  0  0
   -4.2157    3.6179   -3.1701 C   0  0  0  0  0  0  0  0  0  0  0  0
   -5.0660    2.6816   -3.7122 C   0  0  0  0  0  0  0  0  0  0  0  0
   -5.4606    1.5757   -2.9536 C   0  0  0  0  0  0  0  0  0  0  0  0
   -4.9898    1.4248   -1.6460 C   0  0  0  0  0  0  0  0  0  0  0  0
   -4.1353    2.3616   -1.1115 C   0  0  0  0  0  0  0  0  0  0  0  0
   -6.3724    0.5703   -3.5315 C   0  0  0  0  0  0  0  0  0  0  0  0
   -6.7815    0.7030   -4.6689 O   0  0  0  0  0  0  0  0  0  0  0  0
   -6.7520   -0.4954   -2.7989 N   0  0  0  0  0  0  0  0  0  0  0  0
   -7.6575   -1.4939   -3.3728 C   0  0  0  0  0  0  0  0  0  0  0  0
   -6.8601   -2.5013   -4.1603 C   0  0  0  0  0  0  0  0  0  0  0  0
   -5.6587   -2.3961   -4.2346 O   0  0  0  0  0  0  0  0  0  0  0  0
   -7.4845   -3.5156   -4.7793 O   0  0  0  0  0  0  0  0  0  0  0  0
   -8.4102   -2.2064   -2.2474 C   0  0  0  0  0  0  0  0  0  0  0  0
   -9.3157   -1.2060   -1.5262 C   0  0  0  0  0  0  0  0  0  0  0  0
  -10.0571   -1.9079   -0.4177 C   0  0  0  0  0  0  0  0  0  0  0  0
   -9.8795   -3.0873   -0.2244 O   0  0  0  0  0  0  0  0  0  0  0  0
  -10.9147   -1.2228    0.3548 O   0  0  0  0  0  0  0  0  0  0  0  0
   -2.4769    5.5711   -2.1191 C   0  0  0  0  0  0  0  0  0  0  0  0
    3.5113   -0.5926   -0.0340 N   0  0  0  0  0  0  0  0  0  0  0  0
   -1.1671   -0.7327    0.0097 N   0  0  0  0  0  0  0  0  0  0  0  0
    0.1239    5.2190    0.0291 H   0  0  0  0  0  0  0  0  0  0  0  0
   -3.1408    3.7217    0.6415 H   0  0  0  0  0  0  0  0  0  0  0  0
   -2.2165    5.2348    0.4856 H   0  0  0  0  0  0  0  0  0  0  0  0
   -3.9108    4.4727   -3.7556 H   0  0  0  0  0  0  0  0  0  0  0  0
   -5.4283    2.8011   -4.7226 H   0  0  0  0  0  0  0  0  0  0  0  0
   -5.2932    0.5717   -1.0573 H   0  0  0  0  0  0  0  0  0  0  0  0
   -3.7674    2.2432   -0.1030 H   0  0  0  0  0  0  0  0  0  0  0  0
   -6.4257   -0.6013   -1.8916 H   0  0  0  0  0  0  0  0  0  0  0  0
   -8.3717   -1.0004   -4.0320 H   0  0  0  0  0  0  0  0  0  0  0  0
   -9.0171   -3.0086   -2.6673 H   0  0  0  0  0  0  0  0  0  0  0  0
   -7.6945   -2.6246   -1.5396 H   0  0  0  0  0  0  0  0  0  0  0  0
   -8.7088   -0.4038   -1.1063 H   0  0  0  0  0  0  0  0  0  0  0  0
  -10.0313   -0.7878   -2.2340 H   0  0  0  0  0  0  0  0  0  0  0  0
   -1.5672    5.3289   -2.6684 H   0  0  0  0  0  0  0  0  0  0  0  0
   -3.2685    5.8288   -2.8227 H   0  0  0  0  0  0  0  0  0  0  0  0
   -2.2881    6.4174   -1.4586 H   0  0  0  0  0  0  0  0  0  0  0  0
    3.5125   -1.5626   -0.0389 H   0  0  0  0  0  0  0  0  0  0  0  0
    4.3507   -0.1065   -0.0393 H   0  0  0  0  0  0  0  0  0  0  0  0
   -2.0229   -0.2763    0.0206 H   0  0  0  0  0  0  0  0  0  0  0  0
   -1.1344   -1.7022    0.0041 H   0  0  0  0  0  0  0  0  0  0  0  0
   -6.9309   -4.1366   -5.2723 H   0  0  0  0  0  0  0  0  0  0  0  0
  -11.3669   -1.7160    1.0530 H   0  0  0  0  0  0  0  0  0  0  0  0
  1  2  1  0  0  0  0
  1  6  2  0  0  0  0
  1 10  1  0  0  0  0
  2  3  2  0  0  0  0
  2 33  1  0  0  0  0
  3  4  1  0  0  0  0
  4  5  2  0  0  0  0
  4 32  1  0  0  0  0
  5  6  1  0  0  0  0
  6  7  1  0  0  0  0
  7  8  2  0  0  0  0
  8  9  1  0  0  0  0
  8 34  1  0  0  0  0
  9 10  2  0  0  0  0
  9 11  1  0  0  0  0
 11 12  1  0  0  0  0
 11 35  1  0  0  0  0
 11 36  1  0  0  0  0
 12 13  1  0  0  0  0
 12 31  1  0  0  0  0
 13 14  1  0  0  0  0
 13 18  2  0  0  0  0
 14 15  2  0  0  0  0
 14 37  1  0  0  0  0
 15 16  1  0  0  0  0
 15 38  1  0  0  0  0
 16 17  2  0  0  0  0
 16 19  1  0  0  0  0
 17 18  1  0  0  0  0
 17 39  1  0  0  0  0
 18 40  1  0  0  0  0
 19 20  2  0  0  0  0
 19 21  1  0  0  0  0
 21 22  1  0  0  0  0
 21 41  1  0  0  0  0
 22 23  1  0  0  0  0
 22 26  1  0  0  0  0
 22 42  1  0  0  0  0
 23 24  2  0  0  0  0
 23 25  1  0  0  0  0
 25 54  1  0  0  0  0
 26 27  1  0  0  0  0
 26 43  1  0  0  0  0
 26 44  1  0  0  0  0
 27 28  1  0  0  0  0
 27 45  1  0  0  0  0
 27 46  1  0  0  0  0
 28 29  2  0  0  0  0
 28 30  1  0  0  0  0
 30 55  1  0  0  0  0
 31 47  1  0  0  0  0
 31 48  1  0  0  0  0
 31 49  1  0  0  0  0
 32 50  1  0  0  0  0
 32 51  1  0  0  0  0
 33 52  1  0  0  0  0
 33 53  1  0  0  0  0
M  END
>  <Activity>
8.20761

>  <set_rl>
1

>  <Min_dist>
999.9

>  <Avg_dist>
999.9

>  <PC_uM>
0.00088

>  <TG_uM>
N/A

>  <RL_uM>
0.0062

$$$$
1-131463
 Wcorina  11170919323D 1   1.00000     0.00000              
CORINA evaluation license 3.46 0067  05.08.2008
 39 41  0  0  0  0  0  0  0  0999 V2000
   -0.0178    1.4600    0.0101 C   0  0  0  0  0  0  0  0  0  0  0  0
    0.0021   -0.0041    0.0020 C   0  0  0  0  0  0  0  0  0  0  0  0
    1.1840   -0.6041   -0.0124 N   0  0  0  0  0  0  0  0  0  0  0  0
    2.3138    0.0967   -0.0194 C   0  0  0  0  0  0  0  0  0  0  0  0
    2.3522    1.4141   -0.0127 N   0  0  0  0  0  0  0  0  0  0  0  0
    1.2261    2.1386    0.0018 C   0  0  0  0  0  0  0  0  0  0  0  0
    1.2450    3.4737    0.0088 N   0  0  0  0  0  0  0  0  0  0  0  0
    0.1095    4.1391    0.0232 C   0  0  0  0  0  0  0  0  0  0  0  0
   -1.1119    3.4663    0.0313 C   0  0  0  0  0  0  0  0  0  0  0  0
   -1.1531    2.1508    0.0300 N   0  0  0  0  0  0  0  0  0  0  0  0
   -2.3971    4.2531    0.0478 C   0  0  0  0  0  0  0  0  0  0  0  0
   -2.8896    4.4127   -1.3227 N   0  0  0  0  0  0  0  0  0  0  0  0
   -3.7484    3.4651   -1.8675 C   0  0  0  0  0  0  0  0  0  0  0  0
   -4.2155    3.6183   -3.1702 C   0  0  0  0  0  0  0  0  0  0  0  0
   -5.0623    2.6852   -3.7107 C   0  0  0  0  0  0  0  0  0  0  0  0
   -5.4569    1.5786   -2.9520 C   0  0  0  0  0  0  0  0  0  0  0  0
   -4.9858    1.4277   -1.6438 C   0  0  0  0  0  0  0  0  0  0  0  0
   -4.1350    2.3617   -1.1112 C   0  0  0  0  0  0  0  0  0  0  0  0
   -6.3674    0.5739   -3.5295 C   0  0  0  0  0  0  0  0  0  0  0  0
   -6.7762    0.7065   -4.6661 O   0  0  0  0  0  0  0  0  0  0  0  0
   -6.7466   -0.4919   -2.7971 O   0  0  0  0  0  0  0  0  0  0  0  0
   -2.4769    5.5711   -2.1191 C   0  0  0  0  0  0  0  0  0  0  0  0
    3.5113   -0.5926   -0.0340 N   0  0  0  0  0  0  0  0  0  0  0  0
   -1.1671   -0.7327    0.0097 N   0  0  0  0  0  0  0  0  0  0  0  0
    0.1239    5.2190    0.0291 H   0  0  0  0  0  0  0  0  0  0  0  0
   -3.1408    3.7217    0.6415 H   0  0  0  0  0  0  0  0  0  0  0  0
   -2.2165    5.2348    0.4856 H   0  0  0  0  0  0  0  0  0  0  0  0
   -3.9107    4.4733   -3.7554 H   0  0  0  0  0  0  0  0  0  0  0  0
   -5.4246    2.8049   -4.7210 H   0  0  0  0  0  0  0  0  0  0  0  0
   -5.2888    0.5745   -1.0551 H   0  0  0  0  0  0  0  0  0  0  0  0
   -3.7676    2.2437   -0.1025 H   0  0  0  0  0  0  0  0  0  0  0  0
   -1.5672    5.3289   -2.6684 H   0  0  0  0  0  0  0  0  0  0  0  0
   -3.2685    5.8288   -2.8227 H   0  0  0  0  0  0  0  0  0  0  0  0
   -2.2881    6.4174   -1.4586 H   0  0  0  0  0  0  0  0  0  0  0  0
    3.5125   -1.5626   -0.0389 H   0  0  0  0  0  0  0  0  0  0  0  0
    4.3507   -0.1065   -0.0393 H   0  0  0  0  0  0  0  0  0  0  0  0
   -2.0229   -0.2763    0.0206 H   0  0  0  0  0  0  0  0  0  0  0  0
   -1.1344   -1.7022    0.0041 H   0  0  0  0  0  0  0  0  0  0  0  0
   -7.3448   -1.1239   -3.2188 H   0  0  0  0  0  0  0  0  0  0  0  0
  1  2  1  0  0  0  0
  1  6  2  0  0  0  0
  1 10  1  0  0  0  0
  2  3  2  0  0  0  0
  2 24  1  0  0  0  0
  3  4  1  0  0  0  0
  4  5  2  0  0  0  0
  4 23  1  0  0  0  0
  5  6  1  0  0  0  0
  6  7  1  0  0  0  0
  7  8  2  0  0  0  0
  8  9  1  0  0  0  0
  8 25  1  0  0  0  0
  9 10  2  0  0  0  0
  9 11  1  0  0  0  0
 11 12  1  0  0  0  0
 11 26  1  0  0  0  0
 11 27  1  0  0  0  0
 12 13  1  0  0  0  0
 12 22  1  0  0  0  0
 13 14  1  0  0  0  0
 13 18  2  0  0  0  0
 14 15  2  0  0  0  0
 14 28  1  0  0  0  0
 15 16  1  0  0  0  0
 15 29  1  0  0  0  0
 16 17  2  0  0  0  0
 16 19  1  0  0  0  0
 17 18  1  0  0  0  0
 17 30  1  0  0  0  0
 18 31  1  0  0  0  0
 19 20  2  0  0  0  0
 19 21  1  0  0  0  0
 21 39  1  0  0  0  0
 22 32  1  0  0  0  0
 22 33  1  0  0  0  0
 22 34  1  0  0  0  0
 23 35  1  0  0  0  0
 23 36  1  0  0  0  0
 24 37  1  0  0  0  0
 24 38  1  0  0  0  0
M  END
>  <Activity>
6.95861

>  <set_rl>
1

>  <Min_dist>
999.9

>  <Avg_dist>
999.9

>  <PC_uM>
0.94

>  <TG_uM>
2.27

>  <RL_uM>
0.11

$$$$
1-144698
 Wcorina  11170919323D 1   1.00000     0.00000              
CORINA evaluation license 3.46 0067  05.08.2008
 58 60  0  0  0  0  0  0  0  0999 V2000
   -0.0178    1.4600    0.0101 C   0  0  0  0  0  0  0  0  0  0  0  0
    0.0021   -0.0041    0.0020 C   0  0  0  0  0  0  0  0  0  0  0  0
    1.1840   -0.6041   -0.0124 N   0  0  0  0  0  0  0  0  0  0  0  0
    2.3138    0.0967   -0.0194 C   0  0  0  0  0  0  0  0  0  0  0  0
    2.3522    1.4141   -0.0127 N   0  0  0  0  0  0  0  0  0  0  0  0
    1.2261    2.1386    0.0018 C   0  0  0  0  0  0  0  0  0  0  0  0
    1.2450    3.4737    0.0088 N   0  0  0  0  0  0  0  0  0  0  0  0
    0.1095    4.1391    0.0232 C   0  0  0  0  0  0  0  0  0  0  0  0
   -1.1119    3.4663    0.0313 C   0  0  0  0  0  0  0  0  0  0  0  0
   -1.1531    2.1508    0.0300 N   0  0  0  0  0  0  0  0  0  0  0  0
   -2.3971    4.2531    0.0478 C   0  0  0  0  0  0  0  0  0  0  0  0
   -2.8909    4.4132   -1.3265 N   0  0  0  0  0  0  0  0  0  0  0  0
   -4.1799    4.9345   -1.3352 C   0  0  0  0  0  0  0  0  0  0  0  0
   -4.4295    6.1798   -0.7645 C   0  0  0  0  0  0  0  0  0  0  0  0
   -5.7039    6.6984   -0.7715 C   0  0  0  0  0  0  0  0  0  0  0  0
   -6.7488    5.9736   -1.3526 C   0  0  0  0  0  0  0  0  0  0  0  0
   -6.4950    4.7238   -1.9247 C   0  0  0  0  0  0  0  0  0  0  0  0
   -5.2170    4.2130   -1.9195 C   0  0  0  0  0  0  0  0  0  0  0  0
   -4.9412    2.8685   -2.5420 C   0  0  0  0  0  0  0  0  0  0  0  0
   -6.1293    2.3417   -3.0596 F   0  0  0  0  0  0  0  0  0  0  0  0
   -4.0076    3.0150   -3.5736 F   0  0  0  0  0  0  0  0  0  0  0  0
   -4.4305    2.0008   -1.5707 F   0  0  0  0  0  0  0  0  0  0  0  0
   -8.1164    6.5265   -1.3614 C   0  0  0  0  0  0  0  0  0  0  0  0
   -9.0242    5.8951   -1.8671 O   0  0  0  0  0  0  0  0  0  0  0  0
   -8.3597    7.7315   -0.8090 N   0  0  0  0  0  0  0  0  0  0  0  0
   -9.7179    8.2806   -0.8178 C   0  0  0  0  0  0  0  0  0  0  0  0
  -10.4839    7.7450    0.3644 C   0  0  0  0  0  0  0  0  0  0  0  0
   -9.9501    6.9828    1.1351 O   0  0  0  0  0  0  0  0  0  0  0  0
  -11.7592    8.1147    0.5610 O   0  0  0  0  0  0  0  0  0  0  0  0
   -9.6515    9.8068   -0.7334 C   0  0  0  0  0  0  0  0  0  0  0  0
   -8.9836   10.3588   -1.9944 C   0  0  0  0  0  0  0  0  0  0  0  0
   -8.9183   11.8621   -1.9113 C   0  0  0  0  0  0  0  0  0  0  0  0
   -9.3605   12.4334   -0.9429 O   0  0  0  0  0  0  0  0  0  0  0  0
   -8.3688   12.5663   -2.9132 O   0  0  0  0  0  0  0  0  0  0  0  0
   -1.9795    5.2491   -2.1193 C   0  0  0  0  0  0  0  0  0  0  0  0
    3.5113   -0.5926   -0.0340 N   0  0  0  0  0  0  0  0  0  0  0  0
   -1.1671   -0.7327    0.0097 N   0  0  0  0  0  0  0  0  0  0  0  0
    0.1239    5.2190    0.0291 H   0  0  0  0  0  0  0  0  0  0  0  0
   -3.1408    3.7217    0.6415 H   0  0  0  0  0  0  0  0  0  0  0  0
   -2.2165    5.2348    0.4856 H   0  0  0  0  0  0  0  0  0  0  0  0
   -3.6220    6.7390   -0.3155 H   0  0  0  0  0  0  0  0  0  0  0  0
   -5.8970    7.6642   -0.3284 H   0  0  0  0  0  0  0  0  0  0  0  0
   -7.3000    4.1615   -2.3743 H   0  0  0  0  0  0  0  0  0  0  0  0
   -7.6355    8.2352   -0.4056 H   0  0  0  0  0  0  0  0  0  0  0  0
  -10.2216    7.9892   -1.7394 H   0  0  0  0  0  0  0  0  0  0  0  0
  -10.6607   10.2104   -0.6504 H   0  0  0  0  0  0  0  0  0  0  0  0
   -9.0709   10.0974    0.1421 H   0  0  0  0  0  0  0  0  0  0  0  0
   -7.9745    9.9552   -2.0774 H   0  0  0  0  0  0  0  0  0  0  0  0
   -9.5643   10.0682   -2.8700 H   0  0  0  0  0  0  0  0  0  0  0  0
   -0.9954    4.7818   -2.1538 H   0  0  0  0  0  0  0  0  0  0  0  0
   -2.3689    5.3513   -3.1323 H   0  0  0  0  0  0  0  0  0  0  0  0
   -1.8981    6.2343   -1.6602 H   0  0  0  0  0  0  0  0  0  0  0  0
    3.5125   -1.5626   -0.0389 H   0  0  0  0  0  0  0  0  0  0  0  0
    4.3507   -0.1065   -0.0393 H   0  0  0  0  0  0  0  0  0  0  0  0
   -2.0229   -0.2763    0.0206 H   0  0  0  0  0  0  0  0  0  0  0  0
   -1.1344   -1.7022    0.0041 H   0  0  0  0  0  0  0  0  0  0  0  0
  -12.2094    7.7450    1.3329 H   0  0  0  0  0  0  0  0  0  0  0  0
   -8.3495   13.5281   -2.8147 H   0  0  0  0  0  0  0  0  0  0  0  0
  1  2  1  0  0  0  0
  1  6  2  0  0  0  0
  1 10  1  0  0  0  0
  2  3  2  0  0  0  0
  2 37  1  0  0  0  0
  3  4  1  0  0  0  0
  4  5  2  0  0  0  0
  4 36  1  0  0  0  0
  5  6  1  0  0  0  0
  6  7  1  0  0  0  0
  7  8  2  0  0  0  0
  8  9  1  0  0  0  0
  8 38  1  0  0  0  0
  9 10  2  0  0  0  0
  9 11  1  0  0  0  0
 11 12  1  0  0  0  0
 11 39  1  0  0  0  0
 11 40  1  0  0  0  0
 12 13  1  0  0  0  0
 12 35  1  0  0  0  0
 13 14  1  0  0  0  0
 13 18  2  0  0  0  0
 14 15  2  0  0  0  0
 14 41  1  0  0  0  0
 15 16  1  0  0  0  0
 15 42  1  0  0  0  0
 16 17  2  0  0  0  0
 16 23  1  0  0  0  0
 17 18  1  0  0  0  0
 17 43  1  0  0  0  0
 18 19  1  0  0  0  0
 19 20  1  0  0  0  0
 19 21  1  0  0  0  0
 19 22  1  0  0  0  0
 23 24  2  0  0  0  0
 23 25  1  0  0  0  0
 25 26  1  0  0  0  0
 25 44  1  0  0  0  0
 26 27  1  0  0  0  0
 26 30  1  0  0  0  0
 26 45  1  0  0  0  0
 27 28  2  0  0  0  0
 27 29  1  0  0  0  0
 29 57  1  0  0  0  0
 30 31  1  0  0  0  0
 30 46  1  0  0  0  0
 30 47  1  0  0  0  0
 31 32  1  0  0  0  0
 31 48  1  0  0  0  0
 31 49  1  0  0  0  0
 32 33  2  0  0  0  0
 32 34  1  0  0  0  0
 34 58  1  0  0  0  0
 35 50  1  0  0  0  0
 35 51  1  0  0  0  0
 35 52  1  0  0  0  0
 36 53  1  0  0  0  0
 36 54  1  0  0  0  0
 37 55  1  0  0  0  0
 37 56  1  0  0  0  0
M  END
>  <Activity>
8.80967

>  <set_rl>
1

>  <Min_dist>
999.9

>  <Avg_dist>
999.9

>  <PC_uM>
0.00031

>  <TG_uM>
0.0067

>  <RL_uM>
0.00155

$$$$
1-233903
 Wcorina  11170919323D 1   1.00000     0.00000              
CORINA evaluation license 3.46 0067  05.08.2008
 37 39  0  0  0  0  0  0  0  0999 V2000
   -0.0178    1.4600    0.0101 C   0  0  0  0  0  0
    0.0021   -0.0041    0.0020 C   0  0  0  0  0  0
    1.1840   -0.6041   -0.0124 N   0  0  0  0  0  0
    2.3138    0.0967   -0.0194 C   0  0  0  0  0  0
    2.3522    1.4141   -0.0127 N   0  0  0  0  0  0
    1.2261    2.1386    0.0018 C   0  0  0  0  0  0
    1.2450    3.4737    0.0088 N   0  0  0  0  0  0
    0.1095    4.1391    0.0232 C   0  0  0  0  0  0
   -1.1119    3.4663    0.0313 C   0  0  0  0  0  0
   -1.1531    2.1508    0.0300 N   0  0  0  0  0  0
   -2.3971    4.2531    0.0478 C   0  0  0  0  0  0
   -2.8896    4.4127   -1.3227 N   0  0  0  0  0  0
   -4.0694    5.1089   -1.5608 C   0  0  0  0  0  0
   -4.5361    5.2598   -2.8638 C   0  0  0  0  0  0
   -5.7034    5.9482   -3.1027 C   0  0  0  0  0  0
   -6.4207    6.4964   -2.0354 C   0  0  0  0  0  0
   -5.9495    6.3432   -0.7282 C   0  0  0  0  0  0
   -4.7845    5.6488   -0.4953 C   0  0  0  0  0  0
   -7.6722    7.2355   -2.2880 C   0  0  0  0  0  0
   -8.0808    7.3683   -3.4256 O   0  0  0  0  0  0
   -8.3627    7.7634   -1.2580 N   0  0  0  0  0  0
    3.5113   -0.5926   -0.0340 N   0  0  0  0  0  0
   -1.1671   -0.7327    0.0097 N   0  0  0  0  0  0
    0.1239    5.2190    0.0291 H   0  0  0  0  0  0
   -3.1408    3.7217    0.6415 H   0  0  0  0  0  0
   -2.2165    5.2348    0.4856 H   0  0  0  0  0  0
   -2.3926    4.0327   -2.0640 H   0  0  0  0  0  0
   -3.9812    4.8363   -3.6879 H   0  0  0  0  0  0
   -6.0647    6.0652   -4.1137 H   0  0  0  0  0  0
   -6.5013    6.7659    0.0984 H   0  0  0  0  0  0
   -4.4224    5.5260    0.5147 H   0  0  0  0  0  0
   -8.0368    7.6575   -0.3506 H   0  0  0  0  0  0
   -9.1856    8.2494   -1.4242 H   0  0  0  0  0  0
    3.5125   -1.5626   -0.0389 H   0  0  0  0  0  0
    4.3507   -0.1065   -0.0393 H   0  0  0  0  0  0
   -2.0229   -0.2763    0.0206 H   0  0  0  0  0  0
   -1.1344   -1.7022    0.0041 H   0  0  0  0  0  0
  1  2  1  0  0  0
  1  6  2  0  0  0
  1 10  1  0  0  0
  2  3  2  0  0  0
  2 23  1  0  0  0
  3  4  1  0  0  0
  4  5  2  0  0  0
  4 22  1  0  0  0
  5  6  1  0  0  0
  6  7  1  0  0  0
  7  8  2  0  0  0
  8  9  1  0  0  0
  8 24  1  0  0  0
  9 10  2  0  0  0
  9 11  1  0  0  0
 11 12  1  0  0  0
 11 25  1  0  0  0
 11 26  1  0  0  0
 12 13  1  0  0  0
 12 27  1  0  0  0
 13 14  1  0  0  0
 13 18  2  0  0  0
 14 15  2  0  0  0
 14 28  1  0  0  0
 15 16  1  0  0  0
 15 29  1  0  0  0
 16 17  2  0  0  0
 16 19  1  0  0  0
 17 18  1  0  0  0
 17 30  1  0  0  0
 18 31  1  0  0  0
 19 20  2  0  0  0
 19 21  1  0  0  0
 21 32  1  0  0  0
 21 33  1  0  0  0
 22 34  1  0  0  0
 22 35  1  0  0  0
 23 36  1  0  0  0
 23 37  1  0  0  0
M  END
>  <Activity>
3.65758

>  <set_rl>
1

>  <Min_dist>
999.9

>  <Avg_dist>
999.9

>  <PC_uM>
153000

>  <TG_uM>
N/A

>  <RL_uM>
220

$$$$
1-233904
 Wcorina  11170919323D 1   1.00000     0.00000              
CORINA evaluation license 3.46 0067  05.08.2008
 36 38  0  0  0  0  0  0  0  0999 V2000
   -0.0178    1.4600    0.0101 C   0  0  0  0  0  0
    0.0021   -0.0041    0.0020 C   0  0  0  0  0  0
    1.1840   -0.6041   -0.0124 N   0  0  0  0  0  0
    2.3138    0.0967   -0.0194 C   0  0  0  0  0  0
    2.3522    1.4141   -0.0127 N   0  0  0  0  0  0
    1.2261    2.1386    0.0018 C   0  0  0  0  0  0
    1.2450    3.4737    0.0088 N   0  0  0  0  0  0
    0.1095    4.1391    0.0232 C   0  0  0  0  0  0
   -1.1119    3.4663    0.0313 C   0  0  0  0  0  0
   -1.1531    2.1508    0.0300 N   0  0  0  0  0  0
   -2.3971    4.2531    0.0478 C   0  0  0  0  0  0
   -2.8896    4.4127   -1.3227 N   0  0  0  0  0  0
   -3.7525    3.4605   -1.8701 C   0  0  0  0  0  0
   -4.2204    3.6104   -3.1694 C   0  0  0  0  0  0
   -5.0731    2.6668   -3.7077 C   0  0  0  0  0  0
   -5.4612    1.5737   -2.9548 C   0  0  0  0  0  0
   -4.9973    1.4215   -1.6610 C   0  0  0  0  0  0
   -4.1401    2.3586   -1.1183 C   0  0  0  0  0  0
   -2.4769    5.5711   -2.1191 C   0  0  0  0  0  0
    3.5113   -0.5926   -0.0340 N   0  0  0  0  0  0
   -1.1671   -0.7327    0.0097 N   0  0  0  0  0  0
    0.1239    5.2190    0.0291 H   0  0  0  0  0  0
   -3.1408    3.7217    0.6415 H   0  0  0  0  0  0
   -2.2165    5.2348    0.4856 H   0  0  0  0  0  0
   -3.9180    4.4640   -3.7579 H   0  0  0  0  0  0
   -5.4376    2.7828   -4.7177 H   0  0  0  0  0  0
   -6.1284    0.8375   -3.3780 H   0  0  0  0  0  0
   -5.3023    0.5667   -1.0756 H   0  0  0  0  0  0
   -3.7747    2.2368   -0.1094 H   0  0  0  0  0  0
   -1.5672    5.3289   -2.6684 H   0  0  0  0  0  0
   -3.2685    5.8288   -2.8227 H   0  0  0  0  0  0
   -2.2881    6.4174   -1.4586 H   0  0  0  0  0  0
    3.5125   -1.5626   -0.0389 H   0  0  0  0  0  0
    4.3507   -0.1065   -0.0393 H   0  0  0  0  0  0
   -2.0229   -0.2763    0.0206 H   0  0  0  0  0  0
   -1.1344   -1.7022    0.0041 H   0  0  0  0  0  0
  1  2  1  0  0  0
  1  6  2  0  0  0
  1 10  1  0  0  0
  2  3  2  0  0  0
  2 21  1  0  0  0
  3  4  1  0  0  0
  4  5  2  0  0  0
  4 20  1  0  0  0
  5  6  1  0  0  0
  6  7  1  0  0  0
  7  8  2  0  0  0
  8  9  1  0  0  0
  8 22  1  0  0  0
  9 10  2  0  0  0
  9 11  1  0  0  0
 11 12  1  0  0  0
 11 23  1  0  0  0
 11 24  1  0  0  0
 12 13  1  0  0  0
 12 19  1  0  0  0
 13 14  1  0  0  0
 13 18  2  0  0  0
 14 15  2  0  0  0
 14 25  1  0  0  0
 15 16  1  0  0  0
 15 26  1  0  0  0
 16 17  2  0  0  0
 16 27  1  0  0  0
 17 18  1  0  0  0
 17 28  1  0  0  0
 18 29  1  0  0  0
 19 30  1  0  0  0
 19 31  1  0  0  0
 19 32  1  0  0  0
 20 33  1  0  0  0
 20 34  1  0  0  0
 21 35  1  0  0  0
 21 36  1  0  0  0
M  END
>  <Activity>
6.08092

>  <set_rl>
1

>  <Min_dist>
999.9

>  <Avg_dist>
999.9

>  <PC_uM>
10

>  <TG_uM>
16.9

>  <RL_uM>
0.83

$$$$
9-12C
 Wcorina  11170919323D 1   1.00000     0.00000              
CORINA evaluation license 3.46 0067  05.08.2008
 38 41  0  0  0  0  0  0  0  0999 V2000
   -0.0160    1.3254    0.0093 N   0  0  0  0  0  0
    0.0021   -0.0041    0.0020 C   0  0  0  0  0  0
    1.1110   -0.7161   -0.0124 N   0  0  0  0  0  0
    2.3124   -0.1248   -0.0207 C   0  0  0  0  0  0
    2.3723    1.2909   -0.0136 C   0  0  0  0  0  0
    1.1076    2.0287    0.0024 C   0  0  0  0  0  0
    1.0862    3.4062    0.0095 N   0  0  0  0  0  0
    3.5496    1.9077   -0.0211 N   0  0  0  0  0  0
    4.6555    1.1944   -0.0351 C   0  0  0  0  0  0
    4.6023   -0.1990   -0.0420 C   0  0  0  0  0  0
    3.4467   -0.8291   -0.0348 N   0  0  0  0  0  0
    5.9922    1.8902   -0.0441 C   0  0  0  0  0  0
    6.5445    2.1608    1.6625 S   0  0  0  0  0  0
    8.0957    2.9701    1.4535 C   0  0  0  0  0  0
    8.5785    3.2339    0.1881 C   0  0  0  0  0  0
    9.8019    3.8723    0.0128 C   0  0  0  0  0  0
   10.5560    4.2535    1.0811 C   0  0  0  0  0  0
   10.1007    4.0037    2.3868 C   0  0  0  0  0  0
    8.8535    3.3599    2.5793 C   0  0  0  0  0  0
    8.3971    3.1168    3.8838 C   0  0  0  0  0  0
    9.1541    3.5069    4.9465 C   0  0  0  0  0  0
   10.3781    4.1456    4.7586 C   0  0  0  0  0  0
   10.8580    4.3861    3.5077 C   0  0  0  0  0  0
   -1.2060   -0.6748    0.0104 N   0  0  0  0  0  0
    0.2388    3.8780    0.0198 H   0  0  0  0  0  0
    1.9186    3.9042    0.0043 H   0  0  0  0  0  0
    5.5202   -0.7680   -0.0535 H   0  0  0  0  0  0
    6.7205    1.2711   -0.5678 H   0  0  0  0  0  0
    5.8988    2.8500   -0.5522 H   0  0  0  0  0  0
    8.0003    2.9412   -0.6759 H   0  0  0  0  0  0
   10.1600    4.0685   -0.9870 H   0  0  0  0  0  0
   11.5036    4.7474    0.9247 H   0  0  0  0  0  0
    7.4501    2.6230    4.0442 H   0  0  0  0  0  0
    8.8003    3.3189    5.9494 H   0  0  0  0  0  0
   10.9593    4.4454    5.6181 H   0  0  0  0  0  0
   11.8088    4.8813    3.3770 H   0  0  0  0  0  0
   -2.0377   -0.1758    0.0214 H   0  0  0  0  0  0
   -1.2224   -1.6446    0.0054 H   0  0  0  0  0  0
  1  2  1  0  0  0
  1  6  2  0  0  0
  2  3  2  0  0  0
  2 24  1  0  0  0
  3  4  1  0  0  0
  4  5  2  0  0  0
  4 11  1  0  0  0
  5  6  1  0  0  0
  5  8  1  0  0  0
  6  7  1  0  0  0
  7 25  1  0  0  0
  7 26  1  0  0  0
  8  9  2  0  0  0
  9 10  1  0  0  0
  9 12  1  0  0  0
 10 11  2  0  0  0
 10 27  1  0  0  0
 12 13  1  0  0  0
 12 28  1  0  0  0
 12 29  1  0  0  0
 13 14  1  0  0  0
 14 15  1  0  0  0
 14 19  2  0  0  0
 15 16  2  0  0  0
 15 30  1  0  0  0
 16 17  1  0  0  0
 16 31  1  0  0  0
 17 18  2  0  0  0
 17 32  1  0  0  0
 18 19  1  0  0  0
 18 23  1  0  0  0
 19 20  1  0  0  0
 20 21  2  0  0  0
 20 33  1  0  0  0
 21 22  1  0  0  0
 21 34  1  0  0  0
 22 23  2  0  0  0
 22 35  1  0  0  0
 23 36  1  0  0  0
 24 37  1  0  0  0
 24 38  1  0  0  0
M  END
>  <Activity>
5.08619

>  <set_rl>
1

>  <Min_dist>
999.9

>  <Avg_dist>
999.9

>  <PC_uM>
4.2

>  <TG_uM>
7

>  <RL_uM>
8.2

$$$$
9-12D
 Wcorina  11170919323D 1   1.00000     0.00000              
CORINA evaluation license 3.46 0067  05.08.2008
 35 37  0  0  0  0  0  0  0  0999 V2000
   -0.0160    1.3254    0.0093 N   0  0  0  0  0  0
    0.0021   -0.0041    0.0020 C   0  0  0  0  0  0
    1.1110   -0.7161   -0.0124 N   0  0  0  0  0  0
    2.3124   -0.1248   -0.0207 C   0  0  0  0  0  0
    2.3723    1.2909   -0.0136 C   0  0  0  0  0  0
    1.1076    2.0287    0.0024 C   0  0  0  0  0  0
    1.0862    3.4062    0.0095 N   0  0  0  0  0  0
    3.5496    1.9077   -0.0211 N   0  0  0  0  0  0
    4.6555    1.1944   -0.0351 C   0  0  0  0  0  0
    4.6023   -0.1990   -0.0420 C   0  0  0  0  0  0
    3.4467   -0.8291   -0.0348 N   0  0  0  0  0  0
    5.9922    1.8902   -0.0441 C   0  0  0  0  0  0
    6.5445    2.1608    1.6625 S   0  0  0  0  0  0
    8.0957    2.9701    1.4535 C   0  0  0  0  0  0
    8.5775    3.2335    0.1766 C   0  0  0  0  0  0
    9.7933    3.8678    0.0166 C   0  0  0  0  0  0
   10.5319    4.2406    1.1252 C   0  0  0  0  0  0
   10.0559    3.9798    2.3970 C   0  0  0  0  0  0
    8.8375    3.3516    2.5647 C   0  0  0  0  0  0
   10.8645    4.3875    3.6015 C   0  0  0  0  0  0
   -1.2060   -0.6748    0.0104 N   0  0  0  0  0  0
    0.2388    3.8780    0.0198 H   0  0  0  0  0  0
    1.9186    3.9042    0.0043 H   0  0  0  0  0  0
    5.5202   -0.7680   -0.0535 H   0  0  0  0  0  0
    6.7205    1.2711   -0.5678 H   0  0  0  0  0  0
    5.8988    2.8500   -0.5522 H   0  0  0  0  0  0
    8.0017    2.9420   -0.6894 H   0  0  0  0  0  0
   10.1683    4.0728   -0.9752 H   0  0  0  0  0  0
   11.4828    4.7363    0.9970 H   0  0  0  0  0  0
    8.4641    3.1525    3.5584 H   0  0  0  0  0  0
   10.5855    5.3976    3.9015 H   0  0  0  0  0  0
   10.6676    3.6974    4.4219 H   0  0  0  0  0  0
   11.9254    4.3625    3.3524 H   0  0  0  0  0  0
   -2.0377   -0.1758    0.0214 H   0  0  0  0  0  0
   -1.2224   -1.6446    0.0054 H   0  0  0  0  0  0
  1  2  1  0  0  0
  1  6  2  0  0  0
  2  3  2  0  0  0
  2 21  1  0  0  0
  3  4  1  0  0  0
  4  5  2  0  0  0
  4 11  1  0  0  0
  5  6  1  0  0  0
  5  8  1  0  0  0
  6  7  1  0  0  0
  7 22  1  0  0  0
  7 23  1  0  0  0
  8  9  2  0  0  0
  9 10  1  0  0  0
  9 12  1  0  0  0
 10 11  2  0  0  0
 10 24  1  0  0  0
 12 13  1  0  0  0
 12 25  1  0  0  0
 12 26  1  0  0  0
 13 14  1  0  0  0
 14 15  1  0  0  0
 14 19  2  0  0  0
 15 16  2  0  0  0
 15 27  1  0  0  0
 16 17  1  0  0  0
 16 28  1  0  0  0
 17 18  2  0  0  0
 17 29  1  0  0  0
 18 19  1  0  0  0
 18 20  1  0  0  0
 19 30  1  0  0  0
 20 31  1  0  0  0
 20 32  1  0  0  0
 20 33  1  0  0  0
 21 34  1  0  0  0
 21 35  1  0  0  0
M  END
>  <Activity>
5.0716

>  <set_rl>
1

>  <Min_dist>
999.9

>  <Avg_dist>
999.9

>  <PC_uM>
21.2

>  <TG_uM>
1.8

>  <RL_uM>
8.48

$$$$
9-12E
 Wcorina  11170919323D 1   1.00000     0.00000              
CORINA evaluation license 3.46 0067  05.08.2008
 35 37  0  0  0  0  0  0  0  0999 V2000
   -0.0160    1.3254    0.0093 N   0  0  0  0  0  0
    0.0021   -0.0041    0.0020 C   0  0  0  0  0  0
    1.1110   -0.7161   -0.0124 N   0  0  0  0  0  0
    2.3124   -0.1248   -0.0207 C   0  0  0  0  0  0
    2.3723    1.2909   -0.0136 C   0  0  0  0  0  0
    1.1076    2.0287    0.0024 C   0  0  0  0  0  0
    1.0862    3.4062    0.0095 N   0  0  0  0  0  0
    3.5496    1.9077   -0.0211 N   0  0  0  0  0  0
    4.6555    1.1944   -0.0351 C   0  0  0  0  0  0
    4.6023   -0.1990   -0.0420 C   0  0  0  0  0  0
    3.4467   -0.8291   -0.0348 N   0  0  0  0  0  0
    5.9922    1.8902   -0.0441 C   0  0  0  0  0  0
    6.5445    2.1608    1.6625 S   0  0  0  0  0  0
    8.0957    2.9701    1.4535 C   0  0  0  0  0  0
    8.8402    3.3466    2.5649 C   0  0  0  0  0  0
   10.0553    3.9807    2.3972 C   0  0  0  0  0  0
   10.5314    4.2416    1.1252 C   0  0  0  0  0  0
    9.7929    3.8688    0.0168 C   0  0  0  0  0  0
    8.5801    3.2284    0.1767 C   0  0  0  0  0  0
   11.8578    4.9343    0.9464 C   0  0  0  0  0  0
   -1.2060   -0.6748    0.0104 N   0  0  0  0  0  0
    0.2388    3.8780    0.0198 H   0  0  0  0  0  0
    1.9186    3.9042    0.0043 H   0  0  0  0  0  0
    5.5202   -0.7680   -0.0535 H   0  0  0  0  0  0
    6.7205    1.2711   -0.5678 H   0  0  0  0  0  0
    5.8988    2.8500   -0.5522 H   0  0  0  0  0  0
    8.4688    3.1438    3.5585 H   0  0  0  0  0  0
   10.6345    4.2736    3.2604 H   0  0  0  0  0  0
   10.1676    4.0744   -0.9750 H   0  0  0  0  0  0
    8.0062    2.9332   -0.6893 H   0  0  0  0  0  0
   12.6523    4.1899    0.8940 H   0  0  0  0  0  0
   11.8429    5.5153    0.0243 H   0  0  0  0  0  0
   12.0375    5.5987    1.7916 H   0  0  0  0  0  0
   -2.0377   -0.1758    0.0214 H   0  0  0  0  0  0
   -1.2224   -1.6446    0.0054 H   0  0  0  0  0  0
  1  2  1  0  0  0
  1  6  2  0  0  0
  2  3  2  0  0  0
  2 21  1  0  0  0
  3  4  1  0  0  0
  4  5  2  0  0  0
  4 11  1  0  0  0
  5  6  1  0  0  0
  5  8  1  0  0  0
  6  7  1  0  0  0
  7 22  1  0  0  0
  7 23  1  0  0  0
  8  9  2  0  0  0
  9 10  1  0  0  0
  9 12  1  0  0  0
 10 11  2  0  0  0
 10 24  1  0  0  0
 12 13  1  0  0  0
 12 25  1  0  0  0
 12 26  1  0  0  0
 13 14  1  0  0  0
 14 15  1  0  0  0
 14 19  2  0  0  0
 15 16  2  0  0  0
 15 27  1  0  0  0
 16 17  1  0  0  0
 16 28  1  0  0  0
 17 18  2  0  0  0
 17 20  1  0  0  0
 18 19  1  0  0  0
 18 29  1  0  0  0
 19 30  1  0  0  0
 20 31  1  0  0  0
 20 32  1  0  0  0
 20 33  1  0  0  0
 21 34  1  0  0  0
 21 35  1  0  0  0
M  END
>  <Activity>
4.58503

>  <set_rl>
1

>  <Min_dist>
999.9

>  <Avg_dist>
999.9

>  <PC_uM>
30

>  <TG_uM>
15

>  <RL_uM>
26

$$$$
9-12G
 Wcorina  11170919323D 1   1.00000     0.00000              
CORINA evaluation license 3.46 0067  05.08.2008
 36 38  0  0  0  0  0  0  0  0999 V2000
   -0.0160    1.3254    0.0093 N   0  0  0  0  0  0
    0.0021   -0.0041    0.0020 C   0  0  0  0  0  0
    1.1110   -0.7161   -0.0124 N   0  0  0  0  0  0
    2.3124   -0.1248   -0.0207 C   0  0  0  0  0  0
    2.3723    1.2909   -0.0136 C   0  0  0  0  0  0
    1.1076    2.0287    0.0024 C   0  0  0  0  0  0
    1.0862    3.4062    0.0095 N   0  0  0  0  0  0
    3.5496    1.9077   -0.0211 N   0  0  0  0  0  0
    4.6555    1.1944   -0.0351 C   0  0  0  0  0  0
    4.6023   -0.1990   -0.0420 C   0  0  0  0  0  0
    3.4467   -0.8291   -0.0348 N   0  0  0  0  0  0
    5.9922    1.8902   -0.0441 C   0  0  0  0  0  0
    6.5445    2.1608    1.6625 S   0  0  0  0  0  0
    8.0957    2.9701    1.4535 C   0  0  0  0  0  0
    8.8390    3.3459    2.5652 C   0  0  0  0  0  0
   10.0547    3.9797    2.4002 C   0  0  0  0  0  0
   10.5337    4.2411    1.1249 C   0  0  0  0  0  0
    9.7923    3.8663    0.0141 C   0  0  0  0  0  0
    8.5788    3.2276    0.1767 C   0  0  0  0  0  0
   11.7310    4.8658    0.9636 O   0  0  0  0  0  0
   12.1632    5.1034   -0.3776 C   0  0  0  0  0  0
   -1.2060   -0.6748    0.0104 N   0  0  0  0  0  0
    0.2388    3.8780    0.0198 H   0  0  0  0  0  0
    1.9186    3.9042    0.0043 H   0  0  0  0  0  0
    5.5202   -0.7680   -0.0535 H   0  0  0  0  0  0
    6.7205    1.2711   -0.5678 H   0  0  0  0  0  0
    5.8988    2.8500   -0.5522 H   0  0  0  0  0  0
    8.4661    3.1429    3.5582 H   0  0  0  0  0  0
   10.6326    4.2723    3.2644 H   0  0  0  0  0  0
   10.1661    4.0706   -0.9783 H   0  0  0  0  0  0
    8.0037    2.9322   -0.6883 H   0  0  0  0  0  0
   12.2555    4.1531   -0.9034 H   0  0  0  0  0  0
   11.4338    5.7319   -0.8884 H   0  0  0  0  0  0
   13.1301    5.6065   -0.3640 H   0  0  0  0  0  0
   -2.0377   -0.1758    0.0214 H   0  0  0  0  0  0
   -1.2224   -1.6446    0.0054 H   0  0  0  0  0  0
  1  2  1  0  0  0
  1  6  2  0  0  0
  2  3  2  0  0  0
  2 22  1  0  0  0
  3  4  1  0  0  0
  4  5  2  0  0  0
  4 11  1  0  0  0
  5  6  1  0  0  0
  5  8  1  0  0  0
  6  7  1  0  0  0
  7 23  1  0  0  0
  7 24  1  0  0  0
  8  9  2  0  0  0
  9 10  1  0  0  0
  9 12  1  0  0  0
 10 11  2  0  0  0
 10 25  1  0  0  0
 12 13  1  0  0  0
 12 26  1  0  0  0
 12 27  1  0  0  0
 13 14  1  0  0  0
 14 15  1  0  0  0
 14 19  2  0  0  0
 15 16  2  0  0  0
 15 28  1  0  0  0
 16 17  1  0  0  0
 16 29  1  0  0  0
 17 18  2  0  0  0
 17 20  1  0  0  0
 18 19  1  0  0  0
 18 30  1  0  0  0
 19 31  1  0  0  0
 20 21  1  0  0  0
 21 32  1  0  0  0
 21 33  1  0  0  0
 21 34  1  0  0  0
 22 35  1  0  0  0
 22 36  1  0  0  0
M  END
>  <Activity>
4.9914

>  <set_rl>
1

>  <Min_dist>
999.9

>  <Avg_dist>
999.9

>  <PC_uM>
17.2

>  <TG_uM>
14

>  <RL_uM>
10.2

$$$$
9-12J
 Wcorina  11170919323D 1   1.00000     0.00000              
CORINA evaluation license 3.46 0067  05.08.2008
 32 34  0  0  0  0  0  0  0  0999 V2000
   -0.0160    1.3254    0.0093 N   0  0  0  0  0  0
    0.0021   -0.0041    0.0020 C   0  0  0  0  0  0
    1.1110   -0.7161   -0.0124 N   0  0  0  0  0  0
    2.3124   -0.1248   -0.0207 C   0  0  0  0  0  0
    2.3723    1.2909   -0.0136 C   0  0  0  0  0  0
    1.1076    2.0287    0.0024 C   0  0  0  0  0  0
    1.0862    3.4062    0.0095 N   0  0  0  0  0  0
    3.5496    1.9077   -0.0211 N   0  0  0  0  0  0
    4.6555    1.1944   -0.0351 C   0  0  0  0  0  0
    4.6023   -0.1990   -0.0420 C   0  0  0  0  0  0
    3.4467   -0.8291   -0.0348 N   0  0  0  0  0  0
    5.9922    1.8902   -0.0441 C   0  0  0  0  0  0
    6.5445    2.1608    1.6625 S   0  0  0  0  0  0
    8.0957    2.9701    1.4535 C   0  0  0  0  0  0
    8.8399    3.3464    2.5649 C   0  0  0  0  0  0
   10.0554    3.9801    2.3979 C   0  0  0  0  0  0
   10.5325    4.2405    1.1251 C   0  0  0  0  0  0
    9.7933    3.8673    0.0162 C   0  0  0  0  0  0
    8.5798    3.2281    0.1768 C   0  0  0  0  0  0
   12.0610    5.0373    0.9192 Cl  0  0  0  0  0  0
   -1.2060   -0.6748    0.0104 N   0  0  0  0  0  0
    0.2388    3.8780    0.0198 H   0  0  0  0  0  0
    1.9186    3.9042    0.0043 H   0  0  0  0  0  0
    5.5202   -0.7680   -0.0535 H   0  0  0  0  0  0
    6.7205    1.2711   -0.5678 H   0  0  0  0  0  0
    5.8988    2.8500   -0.5522 H   0  0  0  0  0  0
    8.4680    3.1438    3.5584 H   0  0  0  0  0  0
   10.6341    4.2732    3.2614 H   0  0  0  0  0  0
   10.1679    4.0724   -0.9758 H   0  0  0  0  0  0
    8.0057    2.9328   -0.6890 H   0  0  0  0  0  0
   -2.0377   -0.1758    0.0214 H   0  0  0  0  0  0
   -1.2224   -1.6446    0.0054 H   0  0  0  0  0  0
  1  2  1  0  0  0
  1  6  2  0  0  0
  2  3  2  0  0  0
  2 21  1  0  0  0
  3  4  1  0  0  0
  4  5  2  0  0  0
  4 11  1  0  0  0
  5  6  1  0  0  0
  5  8  1  0  0  0
  6  7  1  0  0  0
  7 22  1  0  0  0
  7 23  1  0  0  0
  8  9  2  0  0  0
  9 10  1  0  0  0
  9 12  1  0  0  0
 10 11  2  0  0  0
 10 24  1  0  0  0
 12 13  1  0  0  0
 12 25  1  0  0  0
 12 26  1  0  0  0
 13 14  1  0  0  0
 14 15  1  0  0  0
 14 19  2  0  0  0
 15 16  2  0  0  0
 15 27  1  0  0  0
 16 17  1  0  0  0
 16 28  1  0  0  0
 17 18  2  0  0  0
 17 20  1  0  0  0
 18 19  1  0  0  0
 18 29  1  0  0  0
 19 30  1  0  0  0
 21 31  1  0  0  0
 21 32  1  0  0  0
M  END
>  <Activity>
4.84466

>  <set_rl>
1

>  <Min_dist>
999.9

>  <Avg_dist>
999.9

>  <PC_uM>
42.1

>  <TG_uM>
16.8

>  <RL_uM>
14.3

$$$$
9-12K
 Wcorina  11170919323D 1   1.00000     0.00000              
CORINA evaluation license 3.46 0067  05.08.2008
 33 35  0  0  0  0  0  0  0  0999 V2000
   -0.0160    1.3254    0.0093 N   0  0  0  0  0  0
    0.0021   -0.0041    0.0020 C   0  0  0  0  0  0
    1.1110   -0.7161   -0.0124 N   0  0  0  0  0  0
    2.3124   -0.1248   -0.0207 C   0  0  0  0  0  0
    2.3723    1.2909   -0.0136 C   0  0  0  0  0  0
    1.1076    2.0287    0.0024 C   0  0  0  0  0  0
    1.0862    3.4062    0.0095 N   0  0  0  0  0  0
    3.5496    1.9077   -0.0211 N   0  0  0  0  0  0
    4.6555    1.1944   -0.0351 C   0  0  0  0  0  0
    4.6023   -0.1990   -0.0420 C   0  0  0  0  0  0
    3.4467   -0.8291   -0.0348 N   0  0  0  0  0  0
    5.9922    1.8902   -0.0441 C   0  0  0  0  0  0
    6.3569    2.2294   -1.4218 N   0  0  0  0  0  0
    7.5629    2.8847   -1.6842 C   0  0  0  0  0  0
    7.9100    3.2069   -2.9899 C   0  0  0  0  0  0
    9.1026    3.8545   -3.2463 C   0  0  0  0  0  0
    9.9514    4.1825   -2.2038 C   0  0  0  0  0  0
    9.6084    3.8623   -0.9020 C   0  0  0  0  0  0
    8.4142    3.2202   -0.6392 C   0  0  0  0  0  0
   11.4496    4.9965   -2.5298 Cl  0  0  0  0  0  0
   -1.2060   -0.6748    0.0104 N   0  0  0  0  0  0
    0.2388    3.8780    0.0198 H   0  0  0  0  0  0
    1.9186    3.9042    0.0043 H   0  0  0  0  0  0
    5.5202   -0.7680   -0.0535 H   0  0  0  0  0  0
    5.9314    2.8017    0.5506 H   0  0  0  0  0  0
    6.7485    1.2296    0.3799 H   0  0  0  0  0  0
    5.7613    1.9990   -2.1519 H   0  0  0  0  0  0
    7.2481    2.9508   -3.8040 H   0  0  0  0  0  0
    9.3731    4.1049   -4.2615 H   0  0  0  0  0  0
   10.2730    4.1188   -0.0903 H   0  0  0  0  0  0
    8.1445    2.9752    0.3775 H   0  0  0  0  0  0
   -2.0377   -0.1758    0.0214 H   0  0  0  0  0  0
   -1.2224   -1.6446    0.0054 H   0  0  0  0  0  0
  1  2  1  0  0  0
  1  6  2  0  0  0
  2  3  2  0  0  0
  2 21  1  0  0  0
  3  4  1  0  0  0
  4  5  2  0  0  0
  4 11  1  0  0  0
  5  6  1  0  0  0
  5  8  1  0  0  0
  6  7  1  0  0  0
  7 22  1  0  0  0
  7 23  1  0  0  0
  8  9  2  0  0  0
  9 10  1  0  0  0
  9 12  1  0  0  0
 10 11  2  0  0  0
 10 24  1  0  0  0
 12 13  1  0  0  0
 12 25  1  0  0  0
 12 26  1  0  0  0
 13 14  1  0  0  0
 13 27  1  0  0  0
 14 15  1  0  0  0
 14 19  2  0  0  0
 15 16  2  0  0  0
 15 28  1  0  0  0
 16 17  1  0  0  0
 16 29  1  0  0  0
 17 18  2  0  0  0
 17 20  1  0  0  0
 18 19  1  0  0  0
 18 30  1  0  0  0
 19 31  1  0  0  0
 21 32  1  0  0  0
 21 33  1  0  0  0
M  END
>  <Activity>
6.52288

>  <set_rl>
1

>  <Min_dist>
999.9

>  <Avg_dist>
999.9

>  <PC_uM>
1.5

>  <TG_uM>
0.59

>  <RL_uM>
0.3

$$$$
9-12N
 Wcorina  11170919323D 1   1.00000     0.00000              
CORINA evaluation license 3.46 0067  05.08.2008
 41 43  0  0  0  0  0  0  0  0999 V2000
   -0.0160    1.3254    0.0093 N   0  0  0  0  0  0
    0.0021   -0.0041    0.0020 C   0  0  0  0  0  0
    1.1110   -0.7161   -0.0124 N   0  0  0  0  0  0
    2.3124   -0.1248   -0.0207 C   0  0  0  0  0  0
    2.3723    1.2909   -0.0136 C   0  0  0  0  0  0
    1.1076    2.0287    0.0024 C   0  0  0  0  0  0
    1.0862    3.4062    0.0095 N   0  0  0  0  0  0
    3.5496    1.9077   -0.0211 N   0  0  0  0  0  0
    4.6555    1.1944   -0.0351 C   0  0  0  0  0  0
    4.6023   -0.1990   -0.0420 C   0  0  0  0  0  0
    3.4467   -0.8291   -0.0348 N   0  0  0  0  0  0
    5.9922    1.8902   -0.0441 C   0  0  0  0  0  0
    6.3569    2.2294   -1.4218 N   0  0  0  0  0  0
    7.5647    2.8857   -1.6846 C   0  0  0  0  0  0
    8.4174    3.2156   -0.6416 C   0  0  0  0  0  0
    9.6135    3.8654   -0.9050 C   0  0  0  0  0  0
    9.9571    4.1856   -2.2101 C   0  0  0  0  0  0
    9.1084    3.8581   -3.2514 C   0  0  0  0  0  0
    7.9154    3.2036   -2.9946 C   0  0  0  0  0  0
    7.0837    2.8762   -4.0208 O   0  0  0  0  0  0
    7.5072    3.2328   -5.3382 C   0  0  0  0  0  0
   10.4501    4.1893    0.1168 O   0  0  0  0  0  0
   11.6655    4.8577   -0.2269 C   0  0  0  0  0  0
   -1.2060   -0.6748    0.0104 N   0  0  0  0  0  0
    0.2388    3.8780    0.0198 H   0  0  0  0  0  0
    1.9186    3.9042    0.0043 H   0  0  0  0  0  0
    5.5202   -0.7680   -0.0535 H   0  0  0  0  0  0
    5.9314    2.8017    0.5506 H   0  0  0  0  0  0
    6.7485    1.2296    0.3799 H   0  0  0  0  0  0
    5.7613    1.9990   -2.1519 H   0  0  0  0  0  0
    8.1497    2.9670    0.3748 H   0  0  0  0  0  0
   10.8891    4.6921   -2.4133 H   0  0  0  0  0  0
    9.3783    4.1090   -4.2666 H   0  0  0  0  0  0
    7.6354    4.3136   -5.3986 H   0  0  0  0  0  0
    8.4544    2.7416   -5.5608 H   0  0  0  0  0  0
    6.7548    2.9154   -6.0602 H   0  0  0  0  0  0
   12.2507    4.2266   -0.8957 H   0  0  0  0  0  0
   11.4340    5.7990   -0.7255 H   0  0  0  0  0  0
   12.2388    5.0575    0.6783 H   0  0  0  0  0  0
   -2.0377   -0.1758    0.0214 H   0  0  0  0  0  0
   -1.2224   -1.6446    0.0054 H   0  0  0  0  0  0
  1  2  1  0  0  0
  1  6  2  0  0  0
  2  3  2  0  0  0
  2 24  1  0  0  0
  3  4  1  0  0  0
  4  5  2  0  0  0
  4 11  1  0  0  0
  5  6  1  0  0  0
  5  8  1  0  0  0
  6  7  1  0  0  0
  7 25  1  0  0  0
  7 26  1  0  0  0
  8  9  2  0  0  0
  9 10  1  0  0  0
  9 12  1  0  0  0
 10 11  2  0  0  0
 10 27  1  0  0  0
 12 13  1  0  0  0
 12 28  1  0  0  0
 12 29  1  0  0  0
 13 14  1  0  0  0
 13 30  1  0  0  0
 14 15  1  0  0  0
 14 19  2  0  0  0
 15 16  2  0  0  0
 15 31  1  0  0  0
 16 17  1  0  0  0
 16 22  1  0  0  0
 17 18  2  0  0  0
 17 32  1  0  0  0
 18 19  1  0  0  0
 18 33  1  0  0  0
 19 20  1  0  0  0
 20 21  1  0  0  0
 21 34  1  0  0  0
 21 35  1  0  0  0
 21 36  1  0  0  0
 22 23  1  0  0  0
 23 37  1  0  0  0
 23 38  1  0  0  0
 23 39  1  0  0  0
 24 40  1  0  0  0
 24 41  1  0  0  0
M  END
>  <Activity>
4.64016

>  <set_rl>
1

>  <Min_dist>
999.9

>  <Avg_dist>
999.9

>  <PC_uM>
6.2

>  <TG_uM>
6.9

>  <RL_uM>
22.9

$$$$
9-12P
 Wcorina  11170919323D 1   1.00000     0.00000              
CORINA evaluation license 3.46 0067  05.08.2008
 41 43  0  0  0  0  0  0  0  0999 V2000
   -0.0160    1.3254    0.0093 N   0  0  0  0  0  0
    0.0021   -0.0041    0.0020 C   0  0  0  0  0  0
    1.1110   -0.7161   -0.0124 N   0  0  0  0  0  0
    2.3124   -0.1248   -0.0207 C   0  0  0  0  0  0
    2.3723    1.2909   -0.0136 C   0  0  0  0  0  0
    1.1076    2.0287    0.0024 C   0  0  0  0  0  0
    1.0862    3.4062    0.0095 N   0  0  0  0  0  0
    3.5496    1.9077   -0.0211 N   0  0  0  0  0  0
    4.6555    1.1944   -0.0351 C   0  0  0  0  0  0
    4.6023   -0.1990   -0.0420 C   0  0  0  0  0  0
    3.4467   -0.8291   -0.0348 N   0  0  0  0  0  0
    5.9922    1.8902   -0.0441 C   0  0  0  0  0  0
    6.3569    2.2294   -1.4218 N   0  0  0  0  0  0
    7.5622    2.8843   -1.6840 C   0  0  0  0  0  0
    7.9083    3.2060   -2.9897 C   0  0  0  0  0  0
    9.1047    3.8565   -3.2491 C   0  0  0  0  0  0
    9.9559    4.1861   -2.2048 C   0  0  0  0  0  0
    9.6112    3.8648   -0.9003 C   0  0  0  0  0  0
    8.4125    3.2193   -0.6386 C   0  0  0  0  0  0
   10.4463    4.1874    0.1220 O   0  0  0  0  0  0
   11.6620    4.8564   -0.2197 C   0  0  0  0  0  0
    9.4438    4.1710   -4.5269 O   0  0  0  0  0  0
   10.6910    4.8410   -4.7210 C   0  0  0  0  0  0
   -1.2060   -0.6748    0.0104 N   0  0  0  0  0  0
    0.2388    3.8780    0.0198 H   0  0  0  0  0  0
    1.9186    3.9042    0.0043 H   0  0  0  0  0  0
    5.5202   -0.7680   -0.0535 H   0  0  0  0  0  0
    5.9314    2.8017    0.5506 H   0  0  0  0  0  0
    6.7485    1.2296    0.3799 H   0  0  0  0  0  0
    5.7613    1.9990   -2.1519 H   0  0  0  0  0  0
    7.2458    2.9491   -3.8030 H   0  0  0  0  0  0
   10.8878    4.6929   -2.4075 H   0  0  0  0  0  0
    8.1422    2.9732    0.3776 H   0  0  0  0  0  0
   12.2344    5.0551    0.6863 H   0  0  0  0  0  0
   12.2478    4.2261   -0.8887 H   0  0  0  0  0  0
   11.4308    5.7982   -0.7174 H   0  0  0  0  0  0
   10.6838    5.7865   -4.1787 H   0  0  0  0  0  0
   11.5017    4.2147   -4.3485 H   0  0  0  0  0  0
   10.8389    5.0327   -5.7837 H   0  0  0  0  0  0
   -2.0377   -0.1758    0.0214 H   0  0  0  0  0  0
   -1.2224   -1.6446    0.0054 H   0  0  0  0  0  0
  1  2  1  0  0  0
  1  6  2  0  0  0
  2  3  2  0  0  0
  2 24  1  0  0  0
  3  4  1  0  0  0
  4  5  2  0  0  0
  4 11  1  0  0  0
  5  6  1  0  0  0
  5  8  1  0  0  0
  6  7  1  0  0  0
  7 25  1  0  0  0
  7 26  1  0  0  0
  8  9  2  0  0  0
  9 10  1  0  0  0
  9 12  1  0  0  0
 10 11  2  0  0  0
 10 27  1  0  0  0
 12 13  1  0  0  0
 12 28  1  0  0  0
 12 29  1  0  0  0
 13 14  1  0  0  0
 13 30  1  0  0  0
 14 15  1  0  0  0
 14 19  2  0  0  0
 15 16  2  0  0  0
 15 31  1  0  0  0
 16 17  1  0  0  0
 16 22  1  0  0  0
 17 18  2  0  0  0
 17 32  1  0  0  0
 18 19  1  0  0  0
 18 20  1  0  0  0
 19 33  1  0  0  0
 20 21  1  0  0  0
 21 34  1  0  0  0
 21 35  1  0  0  0
 21 36  1  0  0  0
 22 23  1  0  0  0
 23 37  1  0  0  0
 23 38  1  0  0  0
 23 39  1  0  0  0
 24 40  1  0  0  0
 24 41  1  0  0  0
M  END
>  <Activity>
6.05552

>  <set_rl>
1

>  <Min_dist>
999.9

>  <Avg_dist>
999.9

>  <PC_uM>
0.96

>  <TG_uM>
0.11

>  <RL_uM>
0.88

$$$$
9-12R
 Wcorina  11170919323D 1   1.00000     0.00000              
CORINA evaluation license 3.46 0067  05.08.2008
 40 42  0  0  0  0  0  0  0  0999 V2000
   -0.0160    1.3254    0.0093 N   0  0  0  0  0  0
    0.0021   -0.0041    0.0020 C   0  0  0  0  0  0
    1.1110   -0.7161   -0.0124 N   0  0  0  0  0  0
    2.3124   -0.1248   -0.0207 C   0  0  0  0  0  0
    2.3723    1.2909   -0.0136 C   0  0  0  0  0  0
    1.1076    2.0287    0.0024 C   0  0  0  0  0  0
    1.0862    3.4062    0.0095 N   0  0  0  0  0  0
    3.5496    1.9077   -0.0211 N   0  0  0  0  0  0
    4.6555    1.1944   -0.0351 C   0  0  0  0  0  0
    4.6023   -0.1990   -0.0420 C   0  0  0  0  0  0
    3.4467   -0.8291   -0.0348 N   0  0  0  0  0  0
    5.9922    1.8902   -0.0441 C   0  0  0  0  0  0
    6.3569    2.2294   -1.4218 N   0  0  0  0  0  0
    7.5649    2.8857   -1.6846 C   0  0  0  0  0  0
    8.4181    3.2160   -0.6418 C   0  0  0  0  0  0
    9.6104    3.8643   -0.9039 C   0  0  0  0  0  0
    9.9557    4.1849   -2.2038 C   0  0  0  0  0  0
    9.1101    3.8588   -3.2482 C   0  0  0  0  0  0
    7.9162    3.2041   -2.9946 C   0  0  0  0  0  0
    7.0862    2.8777   -4.0215 O   0  0  0  0  0  0
    7.5114    3.2352   -5.3381 C   0  0  0  0  0  0
   10.5361    4.2229    0.2299 C   0  0  0  0  0  0
   11.4282    3.1689    0.4547 F   0  0  0  0  0  0
   11.2528    5.3780   -0.1007 F   0  0  0  0  0  0
    9.7867    4.4546    1.3883 F   0  0  0  0  0  0
   -1.2060   -0.6748    0.0104 N   0  0  0  0  0  0
    0.2388    3.8780    0.0198 H   0  0  0  0  0  0
    1.9186    3.9042    0.0043 H   0  0  0  0  0  0
    5.5202   -0.7680   -0.0535 H   0  0  0  0  0  0
    5.9314    2.8017    0.5506 H   0  0  0  0  0  0
    6.7485    1.2296    0.3799 H   0  0  0  0  0  0
    5.7613    1.9990   -2.1519 H   0  0  0  0  0  0
    8.1507    2.9670    0.3745 H   0  0  0  0  0  0
   10.8881    4.6917   -2.4039 H   0  0  0  0  0  0
    9.3828    4.1107   -4.2624 H   0  0  0  0  0  0
    6.7598    2.9184   -6.0612 H   0  0  0  0  0  0
    7.6398    4.3160   -5.3975 H   0  0  0  0  0  0
    8.4588    2.7440   -5.5598 H   0  0  0  0  0  0
   -2.0377   -0.1758    0.0214 H   0  0  0  0  0  0
   -1.2224   -1.6446    0.0054 H   0  0  0  0  0  0
  1  2  1  0  0  0
  1  6  2  0  0  0
  2  3  2  0  0  0
  2 26  1  0  0  0
  3  4  1  0  0  0
  4  5  2  0  0  0
  4 11  1  0  0  0
  5  6  1  0  0  0
  5  8  1  0  0  0
  6  7  1  0  0  0
  7 27  1  0  0  0
  7 28  1  0  0  0
  8  9  2  0  0  0
  9 10  1  0  0  0
  9 12  1  0  0  0
 10 11  2  0  0  0
 10 29  1  0  0  0
 12 13  1  0  0  0
 12 30  1  0  0  0
 12 31  1  0  0  0
 13 14  1  0  0  0
 13 32  1  0  0  0
 14 15  1  0  0  0
 14 19  2  0  0  0
 15 16  2  0  0  0
 15 33  1  0  0  0
 16 17  1  0  0  0
 16 22  1  0  0  0
 17 18  2  0  0  0
 17 34  1  0  0  0
 18 19  1  0  0  0
 18 35  1  0  0  0
 19 20  1  0  0  0
 20 21  1  0  0  0
 21 36  1  0  0  0
 21 37  1  0  0  0
 21 38  1  0  0  0
 22 23  1  0  0  0
 22 24  1  0  0  0
 22 25  1  0  0  0
 26 39  1  0  0  0
 26 40  1  0  0  0
M  END
>  <Activity>
4.67778

>  <set_rl>
1

>  <Min_dist>
999.9

>  <Avg_dist>
999.9

>  <PC_uM>
21

>  <TG_uM>
10.6

>  <RL_uM>
21

$$$$
9-12F
 Wcorina  11170919323D 1   1.00000     0.00000              
CORINA evaluation license 3.46 0067  05.08.2008
 36 38  0  0  0  0  0  0  0  0999 V2000
   -0.0160    1.3254    0.0093 N   0  0  0  0  0  0
    0.0021   -0.0041    0.0020 C   0  0  0  0  0  0
    1.1110   -0.7161   -0.0124 N   0  0  0  0  0  0
    2.3124   -0.1248   -0.0207 C   0  0  0  0  0  0
    2.3723    1.2909   -0.0136 C   0  0  0  0  0  0
    1.1076    2.0287    0.0024 C   0  0  0  0  0  0
    1.0862    3.4062    0.0095 N   0  0  0  0  0  0
    3.5496    1.9077   -0.0211 N   0  0  0  0  0  0
    4.6555    1.1944   -0.0351 C   0  0  0  0  0  0
    4.6023   -0.1990   -0.0420 C   0  0  0  0  0  0
    3.4467   -0.8291   -0.0348 N   0  0  0  0  0  0
    5.9922    1.8902   -0.0441 C   0  0  0  0  0  0
    6.5445    2.1608    1.6625 S   0  0  0  0  0  0
    8.0957    2.9701    1.4535 C   0  0  0  0  0  0
    8.5771    3.2333    0.1760 C   0  0  0  0  0  0
    9.7926    3.8680    0.0127 C   0  0  0  0  0  0
   10.5337    4.2428    1.1177 C   0  0  0  0  0  0
   10.0585    3.9828    2.3955 C   0  0  0  0  0  0
    8.8364    3.3512    2.5644 C   0  0  0  0  0  0
   10.7888    4.3517    3.4805 O   0  0  0  0  0  0
   12.0363    5.0028    3.2320 C   0  0  0  0  0  0
   -1.2060   -0.6748    0.0104 N   0  0  0  0  0  0
    0.2388    3.8780    0.0198 H   0  0  0  0  0  0
    1.9186    3.9042    0.0043 H   0  0  0  0  0  0
    5.5202   -0.7680   -0.0535 H   0  0  0  0  0  0
    6.7205    1.2711   -0.5678 H   0  0  0  0  0  0
    5.8988    2.8500   -0.5522 H   0  0  0  0  0  0
    8.0004    2.9409   -0.6891 H   0  0  0  0  0  0
   10.1650    4.0717   -0.9804 H   0  0  0  0  0  0
   11.4843    4.7385    0.9865 H   0  0  0  0  0  0
    8.4630    3.1520    3.5580 H   0  0  0  0  0  0
   12.6827    4.3416    2.6549 H   0  0  0  0  0  0
   11.8616    5.9208    2.6708 H   0  0  0  0  0  0
   12.5162    5.2428    4.1808 H   0  0  0  0  0  0
   -2.0377   -0.1758    0.0214 H   0  0  0  0  0  0
   -1.2224   -1.6446    0.0054 H   0  0  0  0  0  0
  1  2  1  0  0  0
  1  6  2  0  0  0
  2  3  2  0  0  0
  2 22  1  0  0  0
  3  4  1  0  0  0
  4  5  2  0  0  0
  4 11  1  0  0  0
  5  6  1  0  0  0
  5  8  1  0  0  0
  6  7  1  0  0  0
  7 23  1  0  0  0
  7 24  1  0  0  0
  8  9  2  0  0  0
  9 10  1  0  0  0
  9 12  1  0  0  0
 10 11  2  0  0  0
 10 25  1  0  0  0
 12 13  1  0  0  0
 12 26  1  0  0  0
 12 27  1  0  0  0
 13 14  1  0  0  0
 14 15  1  0  0  0
 14 19  2  0  0  0
 15 16  2  0  0  0
 15 28  1  0  0  0
 16 17  1  0  0  0
 16 29  1  0  0  0
 17 18  2  0  0  0
 17 30  1  0  0  0
 18 19  1  0  0  0
 18 20  1  0  0  0
 19 31  1  0  0  0
 20 21  1  0  0  0
 21 32  1  0  0  0
 21 33  1  0  0  0
 21 34  1  0  0  0
 22 35  1  0  0  0
 22 36  1  0  0  0
M  END
>  <Activity>
5.11351

>  <set_rl>
1

>  <Min_dist>
999.9

>  <Avg_dist>
999.9

>  <PC_uM>
9.9

>  <TG_uM>
1.6

>  <RL_uM>
7.7

$$$$
1-235791
 Wcorina  11170919323D 1   1.00000     0.00000              
CORINA evaluation license 3.46 0067  05.08.2008
 38 40  0  0  0  0  0  0  0  0999 V2000
   -0.0178    1.4600    0.0101 C   0  0  0  0  0  0
    0.0021   -0.0041    0.0020 C   0  0  0  0  0  0
    1.1840   -0.6041   -0.0124 N   0  0  0  0  0  0
    2.3138    0.0967   -0.0194 C   0  0  0  0  0  0
    2.3522    1.4141   -0.0127 N   0  0  0  0  0  0
    1.2261    2.1386    0.0018 C   0  0  0  0  0  0
    1.2450    3.4737    0.0088 N   0  0  0  0  0  0
    0.1095    4.1391    0.0232 C   0  0  0  0  0  0
   -1.1119    3.4663    0.0313 C   0  0  0  0  0  0
   -1.1531    2.1508    0.0300 N   0  0  0  0  0  0
   -2.3971    4.2531    0.0478 C   0  0  0  0  0  0
   -2.8896    4.4127   -1.3227 N   0  0  0  0  0  0
   -4.0680    5.1081   -1.5606 C   0  0  0  0  0  0
   -4.5345    5.2587   -2.8646 C   0  0  0  0  0  0
   -5.6929    5.9413   -3.1029 C   0  0  0  0  0  0
   -6.4126    6.4905   -2.0336 C   0  0  0  0  0  0
   -5.9398    6.3367   -0.7236 C   0  0  0  0  0  0
   -4.7832    5.6481   -0.4939 C   0  0  0  0  0  0
   -7.6578    7.2253   -2.2849 C   0  0  0  0  0  0
   -8.0654    7.3579   -3.4197 O   0  0  0  0  0  0
   -8.4302    7.8152   -1.1331 C   0  0  0  0  0  0
    3.5113   -0.5926   -0.0340 N   0  0  0  0  0  0
   -1.1671   -0.7327    0.0097 N   0  0  0  0  0  0
    0.1239    5.2190    0.0291 H   0  0  0  0  0  0
   -3.1408    3.7217    0.6415 H   0  0  0  0  0  0
   -2.2165    5.2348    0.4856 H   0  0  0  0  0  0
   -2.3926    4.0327   -2.0640 H   0  0  0  0  0  0
   -3.9790    4.8353   -3.6883 H   0  0  0  0  0  0
   -6.0537    6.0579   -4.1142 H   0  0  0  0  0  0
   -6.4912    6.7588    0.1034 H   0  0  0  0  0  0
   -4.4204    5.5252    0.5159 H   0  0  0  0  0  0
   -8.0828    8.8311   -0.9451 H   0  0  0  0  0  0
   -9.4918    7.8340   -1.3793 H   0  0  0  0  0  0
   -8.2746    7.2072   -0.2420 H   0  0  0  0  0  0
    3.5125   -1.5626   -0.0389 H   0  0  0  0  0  0
    4.3507   -0.1065   -0.0393 H   0  0  0  0  0  0
   -2.0229   -0.2763    0.0206 H   0  0  0  0  0  0
   -1.1344   -1.7022    0.0041 H   0  0  0  0  0  0
  1  2  1  0  0  0
  1  6  2  0  0  0
  1 10  1  0  0  0
  2  3  2  0  0  0
  2 23  1  0  0  0
  3  4  1  0  0  0
  4  5  2  0  0  0
  4 22  1  0  0  0
  5  6  1  0  0  0
  6  7  1  0  0  0
  7  8  2  0  0  0
  8  9  1  0  0  0
  8 24  1  0  0  0
  9 10  2  0  0  0
  9 11  1  0  0  0
 11 12  1  0  0  0
 11 25  1  0  0  0
 11 26  1  0  0  0
 12 13  1  0  0  0
 12 27  1  0  0  0
 13 14  1  0  0  0
 13 18  2  0  0  0
 14 15  2  0  0  0
 14 28  1  0  0  0
 15 16  1  0  0  0
 15 29  1  0  0  0
 16 17  2  0  0  0
 16 19  1  0  0  0
 17 18  1  0  0  0
 17 30  1  0  0  0
 18 31  1  0  0  0
 19 20  2  0  0  0
 19 21  1  0  0  0
 21 32  1  0  0  0
 21 33  1  0  0  0
 21 34  1  0  0  0
 22 35  1  0  0  0
 22 36  1  0  0  0
 23 37  1  0  0  0
 23 38  1  0  0  0
M  END
>  <Activity>
7.12494

>  <set_rl>
1

>  <Min_dist>
999.9

>  <Avg_dist>
999.9

>  <PC_uM>
0.72

>  <TG_uM>
N/A

>  <RL_uM>
0.075

$$$$
9-12I
 Wcorina  11170919323D 1   1.00000     0.00000              
CORINA evaluation license 3.46 0067  05.08.2008
 32 34  0  0  0  0  0  0  0  0999 V2000
   -0.0160    1.3254    0.0093 N   0  0  0  0  0  0
    0.0021   -0.0041    0.0020 C   0  0  0  0  0  0
    1.1110   -0.7161   -0.0124 N   0  0  0  0  0  0
    2.3124   -0.1248   -0.0207 C   0  0  0  0  0  0
    2.3723    1.2909   -0.0136 C   0  0  0  0  0  0
    1.1076    2.0287    0.0024 C   0  0  0  0  0  0
    1.0862    3.4062    0.0095 N   0  0  0  0  0  0
    3.5496    1.9077   -0.0211 N   0  0  0  0  0  0
    4.6555    1.1944   -0.0351 C   0  0  0  0  0  0
    4.6023   -0.1990   -0.0420 C   0  0  0  0  0  0
    3.4467   -0.8291   -0.0348 N   0  0  0  0  0  0
    5.9922    1.8902   -0.0441 C   0  0  0  0  0  0
    6.5445    2.1608    1.6625 S   0  0  0  0  0  0
    8.0957    2.9701    1.4535 C   0  0  0  0  0  0
    8.8403    3.3466    2.5652 C   0  0  0  0  0  0
   10.0553    3.9807    2.3984 C   0  0  0  0  0  0
   10.5323    4.2421    1.1267 C   0  0  0  0  0  0
    9.7941    3.8689    0.0171 C   0  0  0  0  0  0
    8.5798    3.2282    0.1771 C   0  0  0  0  0  0
   10.3971    4.1992   -1.5769 Cl  0  0  0  0  0  0
   -1.2060   -0.6748    0.0104 N   0  0  0  0  0  0
    0.2388    3.8780    0.0198 H   0  0  0  0  0  0
    1.9186    3.9042    0.0043 H   0  0  0  0  0  0
    5.5202   -0.7680   -0.0535 H   0  0  0  0  0  0
    6.7205    1.2711   -0.5678 H   0  0  0  0  0  0
    5.8988    2.8500   -0.5522 H   0  0  0  0  0  0
    8.4685    3.1437    3.5587 H   0  0  0  0  0  0
   10.6340    4.2733    3.2620 H   0  0  0  0  0  0
   11.4828    4.7388    0.9994 H   0  0  0  0  0  0
    8.0061    2.9327   -0.6889 H   0  0  0  0  0  0
   -2.0377   -0.1758    0.0214 H   0  0  0  0  0  0
   -1.2224   -1.6446    0.0054 H   0  0  0  0  0  0
  1  2  1  0  0  0
  1  6  2  0  0  0
  2  3  2  0  0  0
  2 21  1  0  0  0
  3  4  1  0  0  0
  4  5  2  0  0  0
  4 11  1  0  0  0
  5  6  1  0  0  0
  5  8  1  0  0  0
  6  7  1  0  0  0
  7 22  1  0  0  0
  7 23  1  0  0  0
  8  9  2  0  0  0
  9 10  1  0  0  0
  9 12  1  0  0  0
 10 11  2  0  0  0
 10 24  1  0  0  0
 12 13  1  0  0  0
 12 25  1  0  0  0
 12 26  1  0  0  0
 13 14  1  0  0  0
 14 15  1  0  0  0
 14 19  2  0  0  0
 15 16  2  0  0  0
 15 27  1  0  0  0
 16 17  1  0  0  0
 16 28  1  0  0  0
 17 18  2  0  0  0
 17 29  1  0  0  0
 18 19  1  0  0  0
 18 20  1  0  0  0
 19 30  1  0  0  0
 21 31  1  0  0  0
 21 32  1  0  0  0
M  END
>  <Activity>
4.57512

>  <set_rl>
1

>  <Min_dist>
999.9

>  <Avg_dist>
999.9

>  <PC_uM>
42.2

>  <TG_uM>
5.7

>  <RL_uM>
26.6

$$$$
9-12M
 Wcorina  11170919323D 1   1.00000     0.00000              
CORINA evaluation license 3.46 0067  05.08.2008
 40 42  0  0  0  0  0  0  0  0999 V2000
   -0.0160    1.3254    0.0093 N   0  0  0  0  0  0
    0.0021   -0.0041    0.0020 C   0  0  0  0  0  0
    1.1110   -0.7161   -0.0124 N   0  0  0  0  0  0
    2.3124   -0.1248   -0.0207 C   0  0  0  0  0  0
    2.3723    1.2909   -0.0136 C   0  0  0  0  0  0
    1.1076    2.0287    0.0024 C   0  0  0  0  0  0
    1.0862    3.4062    0.0095 N   0  0  0  0  0  0
    3.5496    1.9077   -0.0211 N   0  0  0  0  0  0
    4.6555    1.1944   -0.0351 C   0  0  0  0  0  0
    4.6023   -0.1990   -0.0420 C   0  0  0  0  0  0
    3.4467   -0.8291   -0.0348 N   0  0  0  0  0  0
    5.9922    1.8902   -0.0441 C   0  0  0  0  0  0
    6.3579    2.2303   -1.4256 N   0  0  0  0  0  0
    7.5971    2.8793   -1.4711 C   0  0  0  0  0  0
    8.7392    2.2389   -0.9942 C   0  0  0  0  0  0
    9.9626    2.8856   -1.0421 C   0  0  0  0  0  0
   10.0493    4.1645   -1.5621 C   0  0  0  0  0  0
    8.9171    4.8006   -2.0349 C   0  0  0  0  0  0
    7.6927    4.1593   -1.9962 C   0  0  0  0  0  0
    6.4613    4.8537   -2.5184 C   0  0  0  0  0  0
    8.6523    0.9817   -0.4824 O   0  0  0  0  0  0
    9.8639    0.3875   -0.0122 C   0  0  0  0  0  0
   -1.2060   -0.6748    0.0104 N   0  0  0  0  0  0
    0.2388    3.8780    0.0198 H   0  0  0  0  0  0
    1.9186    3.9042    0.0043 H   0  0  0  0  0  0
    5.5202   -0.7680   -0.0535 H   0  0  0  0  0  0
    5.9314    2.8017    0.5506 H   0  0  0  0  0  0
    6.7485    1.2296    0.3799 H   0  0  0  0  0  0
    6.3580    1.4093   -2.0122 H   0  0  0  0  0  0
   10.8492    2.3915   -0.6732 H   0  0  0  0  0  0
   11.0044    4.6674   -1.5983 H   0  0  0  0  0  0
    8.9895    5.7994   -2.4393 H   0  0  0  0  0  0
    5.9920    5.4166   -1.7116 H   0  0  0  0  0  0
    6.7416    5.5351   -3.3217 H   0  0  0  0  0  0
    5.7599    4.1116   -2.8996 H   0  0  0  0  0  0
   10.5782    0.3209   -0.8328 H   0  0  0  0  0  0
   10.2832    1.0002    0.7858 H   0  0  0  0  0  0
    9.6543   -0.6119    0.3690 H   0  0  0  0  0  0
   -2.0377   -0.1758    0.0214 H   0  0  0  0  0  0
   -1.2224   -1.6446    0.0054 H   0  0  0  0  0  0
  1  2  1  0  0  0
  1  6  2  0  0  0
  2  3  2  0  0  0
  2 23  1  0  0  0
  3  4  1  0  0  0
  4  5  2  0  0  0
  4 11  1  0  0  0
  5  6  1  0  0  0
  5  8  1  0  0  0
  6  7  1  0  0  0
  7 24  1  0  0  0
  7 25  1  0  0  0
  8  9  2  0  0  0
  9 10  1  0  0  0
  9 12  1  0  0  0
 10 11  2  0  0  0
 10 26  1  0  0  0
 12 13  1  0  0  0
 12 27  1  0  0  0
 12 28  1  0  0  0
 13 14  1  0  0  0
 13 29  1  0  0  0
 14 15  1  0  0  0
 14 19  2  0  0  0
 15 16  2  0  0  0
 15 21  1  0  0  0
 16 17  1  0  0  0
 16 30  1  0  0  0
 17 18  2  0  0  0
 17 31  1  0  0  0
 18 19  1  0  0  0
 18 32  1  0  0  0
 19 20  1  0  0  0
 20 33  1  0  0  0
 20 34  1  0  0  0
 20 35  1  0  0  0
 21 22  1  0  0  0
 22 36  1  0  0  0
 22 37  1  0  0  0
 22 38  1  0  0  0
 23 39  1  0  0  0
 23 40  1  0  0  0
M  END
>  <Activity>
5.24413

>  <set_rl>
1

>  <Min_dist>
999.9

>  <Avg_dist>
999.9

>  <PC_uM>
15.8

>  <TG_uM>
1.85

>  <RL_uM>
5.7

$$$$
9-12Q
 Wcorina  11170919323D 1   1.00000     0.00000              
CORINA evaluation license 3.46 0067  05.08.2008
 45 47  0  0  0  0  0  0  0  0999 V2000
   -0.0160    1.3254    0.0093 N   0  0  0  0  0  0
    0.0021   -0.0041    0.0020 C   0  0  0  0  0  0
    1.1110   -0.7161   -0.0124 N   0  0  0  0  0  0
    2.3124   -0.1248   -0.0207 C   0  0  0  0  0  0
    2.3723    1.2909   -0.0136 C   0  0  0  0  0  0
    1.1076    2.0287    0.0024 C   0  0  0  0  0  0
    1.0862    3.4062    0.0095 N   0  0  0  0  0  0
    3.5496    1.9077   -0.0211 N   0  0  0  0  0  0
    4.6555    1.1944   -0.0351 C   0  0  0  0  0  0
    4.6023   -0.1990   -0.0420 C   0  0  0  0  0  0
    3.4467   -0.8291   -0.0348 N   0  0  0  0  0  0
    5.9922    1.8902   -0.0441 C   0  0  0  0  0  0
    6.3569    2.2294   -1.4218 N   0  0  0  0  0  0
    7.5644    2.8855   -1.6845 C   0  0  0  0  0  0
    7.9096    3.2067   -2.9902 C   0  0  0  0  0  0
    9.1058    3.8568   -3.2513 C   0  0  0  0  0  0
    9.9594    4.1869   -2.2055 C   0  0  0  0  0  0
    9.6131    3.8650   -0.8988 C   0  0  0  0  0  0
    8.4140    3.2200   -0.6388 C   0  0  0  0  0  0
   10.4478    4.1877    0.1252 O   0  0  0  0  0  0
   10.0283    3.8266    1.4426 C   0  0  0  0  0  0
   11.1350    4.8252   -2.4613 O   0  0  0  0  0  0
   11.1108    6.2540   -2.4613 C   0  0  0  0  0  0
    9.4441    4.1710   -4.5304 O   0  0  0  0  0  0
    8.5196    3.8012   -5.5554 C   0  0  0  0  0  0
   -1.2060   -0.6748    0.0104 N   0  0  0  0  0  0
    0.2388    3.8780    0.0198 H   0  0  0  0  0  0
    1.9186    3.9042    0.0043 H   0  0  0  0  0  0
    5.5202   -0.7680   -0.0535 H   0  0  0  0  0  0
    5.9314    2.8017    0.5506 H   0  0  0  0  0  0
    6.7485    1.2296    0.3799 H   0  0  0  0  0  0
    5.7613    1.9990   -2.1519 H   0  0  0  0  0  0
    7.2463    2.9498   -3.8029 H   0  0  0  0  0  0
    8.1425    2.9741    0.3772 H   0  0  0  0  0  0
    9.0822    4.3178    1.6700 H   0  0  0  0  0  0
    9.8993    2.7458    1.4994 H   0  0  0  0  0  0
   10.7833    4.1408    2.1633 H   0  0  0  0  0  0
   10.4149    6.6056   -3.2231 H   0  0  0  0  0  0
   10.7899    6.6120   -1.4831 H   0  0  0  0  0  0
   12.1091    6.6343   -2.6779 H   0  0  0  0  0  0
    7.5631    4.2923   -5.3764 H   0  0  0  0  0  0
    8.9102    4.1092   -6.5253 H   0  0  0  0  0  0
    8.3804    2.7202   -5.5464 H   0  0  0  0  0  0
   -2.0377   -0.1758    0.0214 H   0  0  0  0  0  0
   -1.2224   -1.6446    0.0054 H   0  0  0  0  0  0
  1  2  1  0  0  0
  1  6  2  0  0  0
  2  3  2  0  0  0
  2 26  1  0  0  0
  3  4  1  0  0  0
  4  5  2  0  0  0
  4 11  1  0  0  0
  5  6  1  0  0  0
  5  8  1  0  0  0
  6  7  1  0  0  0
  7 27  1  0  0  0
  7 28  1  0  0  0
  8  9  2  0  0  0
  9 10  1  0  0  0
  9 12  1  0  0  0
 10 11  2  0  0  0
 10 29  1  0  0  0
 12 13  1  0  0  0
 12 30  1  0  0  0
 12 31  1  0  0  0
 13 14  1  0  0  0
 13 32  1  0  0  0
 14 15  1  0  0  0
 14 19  2  0  0  0
 15 16  2  0  0  0
 15 33  1  0  0  0
 16 17  1  0  0  0
 16 24  1  0  0  0
 17 18  2  0  0  0
 17 22  1  0  0  0
 18 19  1  0  0  0
 18 20  1  0  0  0
 19 34  1  0  0  0
 20 21  1  0  0  0
 21 35  1  0  0  0
 21 36  1  0  0  0
 21 37  1  0  0  0
 22 23  1  0  0  0
 23 38  1  0  0  0
 23 39  1  0  0  0
 23 40  1  0  0  0
 24 25  1  0  0  0
 25 41  1  0  0  0
 25 42  1  0  0  0
 25 43  1  0  0  0
 26 44  1  0  0  0
 26 45  1  0  0  0
M  END
>  <Activity>
5.72125

>  <set_rl>
1

>  <Min_dist>
999.9

>  <Avg_dist>
999.9

>  <PC_uM>
7

>  <TG_uM>
1

>  <RL_uM>
1.9

$$$$
11-GR92754
 Wcorina  11170919323D 1   1.00000     0.00000              
CORINA evaluation license 3.46 0067  05.08.2008
 42 43  0  0  0  0  0  0  0  0999 V2000
   -0.0528    1.5792    0.7970 N   0  0  0  0  0  0
   -0.1073    0.2837    1.0914 C   0  0  0  0  0  0
    0.9404   -0.5149    1.0551 N   0  0  0  0  0  0
    2.1496   -0.0540    0.7106 C   0  0  0  0  0  0
    2.2851    1.3179    0.3832 C   0  0  0  0  0  0
    1.0862    2.1565    0.4412 C   0  0  0  0  0  0
    1.1399    3.4989    0.1362 N   0  0  0  0  0  0
    3.4721    1.8061    0.0377 N   0  0  0  0  0  0
    4.5169    1.0066    0.0026 C   0  0  0  0  0  0
    4.3891   -0.3443    0.3239 C   0  0  0  0  0  0
    3.2227   -0.8474    0.6685 N   0  0  0  0  0  0
    5.6009   -1.2388    0.2760 C   0  0  0  0  0  0
    5.6602   -1.9452   -1.0799 C   0  0  0  0  0  0
    6.9676   -2.7325   -1.1881 C   0  0  0  0  0  0
    4.4751   -2.9045   -1.2074 C   0  0  0  0  0  0
    5.8643    1.5563   -0.3891 C   0  0  0  0  0  0
    6.0015    1.5325   -1.9128 C   0  0  0  0  0  0
    4.9990    2.5094   -2.5304 C   0  0  0  0  0  0
    7.4222    1.9446   -2.3034 C   0  0  0  0  0  0
   -1.3273   -0.2537    1.4553 N   0  0  0  0  0  0
    0.3352    4.0388    0.1799 H   0  0  0  0  0  0
    1.9824    3.9042   -0.1222 H   0  0  0  0  0  0
    6.5008   -0.6392    0.4129 H   0  0  0  0  0  0
    5.5354   -1.9823    1.0704 H   0  0  0  0  0  0
    5.6152   -1.2041   -1.8779 H   0  0  0  0  0  0
    7.0125   -3.4736   -0.3901 H   0  0  0  0  0  0
    7.0098   -3.2357   -2.1541 H   0  0  0  0  0  0
    7.8119   -2.0491   -1.0972 H   0  0  0  0  0  0
    4.4620   -3.5813   -0.3532 H   0  0  0  0  0  0
    3.5468   -2.3337   -1.2330 H   0  0  0  0  0  0
    4.5722   -3.4817   -2.1269 H   0  0  0  0  0  0
    5.9560    2.5821   -0.0321 H   0  0  0  0  0  0
    6.6494    0.9451    0.0560 H   0  0  0  0  0  0
    5.8013    0.5258   -2.2799 H   0  0  0  0  0  0
    3.9847    2.1619   -2.3338 H   0  0  0  0  0  0
    5.1363    3.4973   -2.0908 H   0  0  0  0  0  0
    5.1617    2.5648   -3.6068 H   0  0  0  0  0  0
    8.1364    1.2487   -1.8633 H   0  0  0  0  0  0
    7.5199    1.9277   -3.3889 H   0  0  0  0  0  0
    7.6224    2.9513   -1.9363 H   0  0  0  0  0  0
   -2.1150    0.3112    1.4907 H   0  0  0  0  0  0
   -1.3959   -1.1959    1.6753 H   0  0  0  0  0  0
  1  2  1  0  0  0
  1  6  2  0  0  0
  2  3  2  0  0  0
  2 20  1  0  0  0
  3  4  1  0  0  0
  4  5  2  0  0  0
  4 11  1  0  0  0
  5  6  1  0  0  0
  5  8  1  0  0  0
  6  7  1  0  0  0
  7 21  1  0  0  0
  7 22  1  0  0  0
  8  9  2  0  0  0
  9 10  1  0  0  0
  9 16  1  0  0  0
 10 11  2  0  0  0
 10 12  1  0  0  0
 12 13  1  0  0  0
 12 23  1  0  0  0
 12 24  1  0  0  0
 13 14  1  0  0  0
 13 15  1  0  0  0
 13 25  1  0  0  0
 14 26  1  0  0  0
 14 27  1  0  0  0
 14 28  1  0  0  0
 15 29  1  0  0  0
 15 30  1  0  0  0
 15 31  1  0  0  0
 16 17  1  0  0  0
 16 32  1  0  0  0
 16 33  1  0  0  0
 17 18  1  0  0  0
 17 19  1  0  0  0
 17 34  1  0  0  0
 18 35  1  0  0  0
 18 36  1  0  0  0
 18 37  1  0  0  0
 19 38  1  0  0  0
 19 39  1  0  0  0
 19 40  1  0  0  0
 20 41  1  0  0  0
 20 42  1  0  0  0
M  END
>  <Activity>
6.49485

>  <set_rl>
1

>  <Min_dist>
999.9

>  <Avg_dist>
999.9

>  <PC_uM>
0.082

>  <TG_uM>
0.028

>  <RL_uM>
0.32

$$$$
12-4C
 Wcorina  11170919323D 1   1.00000     0.00000              
CORINA evaluation license 3.46 0067  05.08.2008
 44 48  0  0  0  0  0  0  0  0999 V2000
   -0.0160    1.3254    0.0093 N   0  0  0  0  0  0
    0.0021   -0.0041    0.0020 C   0  0  0  0  0  0
    1.1110   -0.7161   -0.0124 N   0  0  0  0  0  0
    2.3124   -0.1248   -0.0207 C   0  0  0  0  0  0
    2.3723    1.2909   -0.0136 C   0  0  0  0  0  0
    1.1076    2.0287    0.0024 C   0  0  0  0  0  0
    1.0862    3.4062    0.0095 N   0  0  0  0  0  0
    3.5496    1.9077   -0.0211 N   0  0  0  0  0  0
    4.6555    1.1944   -0.0351 C   0  0  0  0  0  0
    4.6023   -0.1990   -0.0420 C   0  0  0  0  0  0
    3.4467   -0.8291   -0.0348 N   0  0  0  0  0  0
    5.9922    1.8902   -0.0441 C   0  0  0  0  0  0
    6.3569    2.2294   -1.4218 N   0  0  0  0  0  0
    5.9766    3.4585   -1.9643 C   0  0  0  0  0  0
    5.9698    3.6448   -3.3388 C   0  0  0  0  0  0
    5.5968    4.8729   -3.8583 C   0  0  0  0  0  0
    5.2288    5.9039   -3.0153 C   0  0  0  0  0  0
    5.2316    5.7169   -1.6453 C   0  0  0  0  0  0
    5.6045    4.4963   -1.1182 C   0  0  0  0  0  0
    6.3524    2.5373   -4.2789 C   0  0  0  0  0  0
    7.1091    1.4453   -3.5777 C   0  0  0  0  0  0
    7.0907    1.3267   -2.1942 C   0  0  0  0  0  0
    7.7983    0.3064   -1.5699 C   0  0  0  0  0  0
    8.5302   -0.5886   -2.3251 C   0  0  0  0  0  0
    8.5576   -0.4672   -3.7022 C   0  0  0  0  0  0
    7.8423    0.5421   -4.3286 C   0  0  0  0  0  0
   -1.2060   -0.6748    0.0104 N   0  0  0  0  0  0
    0.2388    3.8780    0.0198 H   0  0  0  0  0  0
    1.9186    3.9042    0.0043 H   0  0  0  0  0  0
    5.5202   -0.7680   -0.0535 H   0  0  0  0  0  0
    5.9314    2.8017    0.5506 H   0  0  0  0  0  0
    6.7485    1.2296    0.3799 H   0  0  0  0  0  0
    5.5938    5.0257   -4.9274 H   0  0  0  0  0  0
    4.9385    6.8590   -3.4277 H   0  0  0  0  0  0
    4.9418    6.5239   -0.9886 H   0  0  0  0  0  0
    5.6071    4.3482   -0.0485 H   0  0  0  0  0  0
    5.4481    2.1166   -4.7186 H   0  0  0  0  0  0
    6.9752    2.9463   -5.0745 H   0  0  0  0  0  0
    7.7760    0.2136   -0.4942 H   0  0  0  0  0  0
    9.0805   -1.3817   -1.8409 H   0  0  0  0  0  0
    9.1316   -1.1658   -4.2929 H   0  0  0  0  0  0
    7.8664    0.6323   -5.4046 H   0  0  0  0  0  0
   -2.0377   -0.1758    0.0214 H   0  0  0  0  0  0
   -1.2224   -1.6446    0.0054 H   0  0  0  0  0  0
  1  2  1  0  0  0
  1  6  2  0  0  0
  2  3  2  0  0  0
  2 27  1  0  0  0
  3  4  1  0  0  0
  4  5  2  0  0  0
  4 11  1  0  0  0
  5  6  1  0  0  0
  5  8  1  0  0  0
  6  7  1  0  0  0
  7 28  1  0  0  0
  7 29  1  0  0  0
  8  9  2  0  0  0
  9 10  1  0  0  0
  9 12  1  0  0  0
 10 11  2  0  0  0
 10 30  1  0  0  0
 12 13  1  0  0  0
 12 31  1  0  0  0
 12 32  1  0  0  0
 13 14  1  0  0  0
 13 22  1  0  0  0
 14 15  1  0  0  0
 14 19  2  0  0  0
 15 16  2  0  0  0
 15 20  1  0  0  0
 16 17  1  0  0  0
 16 33  1  0  0  0
 17 18  2  0  0  0
 17 34  1  0  0  0
 18 19  1  0  0  0
 18 35  1  0  0  0
 19 36  1  0  0  0
 20 21  1  0  0  0
 20 37  1  0  0  0
 20 38  1  0  0  0
 21 22  1  0  0  0
 21 26  2  0  0  0
 22 23  2  0  0  0
 23 24  1  0  0  0
 23 39  1  0  0  0
 24 25  2  0  0  0
 24 40  1  0  0  0
 25 26  1  0  0  0
 25 41  1  0  0  0
 26 42  1  0  0  0
 27 43  1  0  0  0
 27 44  1  0  0  0
M  END
>  <Activity>
7.56864

>  <set_rl>
1

>  <Min_dist>
999.9

>  <Avg_dist>
999.9

>  <PC_uM>
0.042

>  <TG_uM>
0.029

>  <RL_uM>
0.027

$$$$
12-4A
 Wcorina  11170919323D 1   1.00000     0.00000              
CORINA evaluation license 3.46 0067  05.08.2008
 45 49  0  0  0  0  0  0  0  0999 V2000
   -0.0158    1.3140    0.0093 C   0  0  0  0  0  0
    0.0021   -0.0041    0.0020 N   0  0  0  0  0  0
    1.1578   -0.6797   -0.0126 C   0  0  0  0  0  0
    2.3718    0.0516   -0.0202 C   0  0  0  0  0  0
    2.2895    1.5132   -0.0116 C   0  0  0  0  0  0
    1.0828    2.0623    0.0028 N   0  0  0  0  0  0
    3.4265    2.2910   -0.0183 N   0  0  0  0  0  0
    3.5356   -0.5902   -0.0343 N   0  0  0  0  0  0
    3.5506   -1.9061   -0.0411 C   0  0  0  0  0  0
    2.3590   -2.6305   -0.0341 C   0  0  0  0  0  0
    1.1961   -2.0144   -0.0197 N   0  0  0  0  0  0
    4.8683   -2.6373   -0.0570 C   0  0  0  0  0  0
    5.3421   -2.7624   -1.4419 N   0  0  0  0  0  0
    6.4329   -3.6200   -1.5195 C   0  0  0  0  0  0
    6.3281   -4.8312   -2.3597 C   0  0  0  0  0  0
    7.3438   -5.6586   -2.4610 C   0  0  0  0  0  0
    8.5943   -5.3778   -1.7347 C   0  0  0  0  0  0
    8.6867   -4.3032   -0.9839 C   0  0  0  0  0  0
    7.5426   -3.3767   -0.8640 C   0  0  0  0  0  0
    7.6688   -2.2009    0.0038 C   0  0  0  0  0  0
    7.1921   -1.0284   -0.2608 C   0  0  0  0  0  0
    6.4469   -0.6804   -1.4762 C   0  0  0  0  0  0
    6.6831    0.6337   -2.1077 C   0  0  0  0  0  0
    6.0226    0.9768   -3.1908 C   0  0  0  0  0  0
    5.0430    0.0455   -3.7767 C   0  0  0  0  0  0
    4.8362   -1.1249   -3.2169 C   0  0  0  0  0  0
    5.5814   -1.5131   -2.0011 C   0  0  0  0  0  0
   -1.2417    1.9516    0.0184 N   0  0  0  0  0  0
    4.3010    1.8716   -0.0289 H   0  0  0  0  0  0
    3.3525    3.2582   -0.0124 H   0  0  0  0  0  0
    2.3909   -3.7101   -0.0405 H   0  0  0  0  0  0
    5.5999   -2.0804    0.5284 H   0  0  0  0  0  0
    4.7381   -3.6301    0.3735 H   0  0  0  0  0  0
    5.4119   -5.0375   -2.8929 H   0  0  0  0  0  0
    7.2619   -6.5431   -3.0754 H   0  0  0  0  0  0
    9.4329   -6.0530   -1.8192 H   0  0  0  0  0  0
    9.6035   -4.0967   -0.4516 H   0  0  0  0  0  0
    8.2005   -2.3240    0.9357 H   0  0  0  0  0  0
    7.3541   -0.2471    0.4670 H   0  0  0  0  0  0
    7.4015    1.3157   -1.6773 H   0  0  0  0  0  0
    6.1972    1.9387   -3.6498 H   0  0  0  0  0  0
    4.4955    0.3247   -4.6648 H   0  0  0  0  0  0
    4.1180   -1.8069   -3.6476 H   0  0  0  0  0  0
   -2.0596    1.4302    0.0194 H   0  0  0  0  0  0
   -1.2843    2.9207    0.0239 H   0  0  0  0  0  0
  1  2  1  0  0  0
  1  6  2  0  0  0
  1 28  1  0  0  0
  2  3  2  0  0  0
  3  4  1  0  0  0
  3 11  1  0  0  0
  4  5  2  0  0  0
  4  8  1  0  0  0
  5  6  1  0  0  0
  5  7  1  0  0  0
  7 29  1  0  0  0
  7 30  1  0  0  0
  8  9  2  0  0  0
  9 10  1  0  0  0
  9 12  1  0  0  0
 10 11  2  0  0  0
 10 31  1  0  0  0
 12 13  1  0  0  0
 12 32  1  0  0  0
 12 33  1  0  0  0
 13 14  1  0  0  0
 13 27  1  0  0  0
 14 15  1  0  0  0
 14 19  2  0  0  0
 15 16  2  0  0  0
 15 34  1  0  0  0
 16 17  1  0  0  0
 16 35  1  0  0  0
 17 18  2  0  0  0
 17 36  1  0  0  0
 18 19  1  0  0  0
 18 37  1  0  0  0
 19 20  1  0  0  0
 20 21  2  0  0  0
 20 38  1  0  0  0
 21 22  1  0  0  0
 21 39  1  0  0  0
 22 23  1  0  0  0
 22 27  2  0  0  0
 23 24  2  0  0  0
 23 40  1  0  0  0
 24 25  1  0  0  0
 24 41  1  0  0  0
 25 26  2  0  0  0
 25 42  1  0  0  0
 26 27  1  0  0  0
 26 43  1  0  0  0
 28 44  1  0  0  0
 28 45  1  0  0  0
M  END
>  <Activity>
5.35655

>  <set_rl>
1

>  <Min_dist>
999.9

>  <Avg_dist>
999.9

>  <PC_uM>
0.21

>  <TG_uM>
0.043

>  <RL_uM>
4.4

$$$$
1-232965
 Wcorina  11170919323D 1   1.00000     0.00000              
CORINA evaluation license 3.46 0067  05.08.2008
 32 34  0  0  0  0  0  0  0  0999 V2000
   -0.0160    1.3254    0.0093 N   0  0  0  0  0  0
    0.0021   -0.0041    0.0020 C   0  0  0  0  0  0
    1.1110   -0.7161   -0.0124 N   0  0  0  0  0  0
    2.3124   -0.1248   -0.0207 C   0  0  0  0  0  0
    2.3723    1.2909   -0.0136 C   0  0  0  0  0  0
    1.1076    2.0287    0.0024 C   0  0  0  0  0  0
    1.0862    3.4062    0.0095 N   0  0  0  0  0  0
    3.5496    1.9077   -0.0211 N   0  0  0  0  0  0
    4.6555    1.1944   -0.0351 C   0  0  0  0  0  0
    4.6023   -0.1990   -0.0420 C   0  0  0  0  0  0
    3.4467   -0.8291   -0.0348 N   0  0  0  0  0  0
    5.9922    1.8902   -0.0441 C   0  0  0  0  0  0
    6.5445    2.1608    1.6625 S   0  0  0  0  0  0
    8.0957    2.9701    1.4535 C   0  0  0  0  0  0
    8.8402    3.3466    2.5649 C   0  0  0  0  0  0
   10.0553    3.9807    2.3972 C   0  0  0  0  0  0
   10.5314    4.2416    1.1252 C   0  0  0  0  0  0
    9.7929    3.8688    0.0168 C   0  0  0  0  0  0
    8.5801    3.2284    0.1767 C   0  0  0  0  0  0
   -1.2060   -0.6748    0.0104 N   0  0  0  0  0  0
    0.2388    3.8780    0.0198 H   0  0  0  0  0  0
    1.9186    3.9042    0.0043 H   0  0  0  0  0  0
    5.5202   -0.7680   -0.0535 H   0  0  0  0  0  0
    6.7205    1.2711   -0.5678 H   0  0  0  0  0  0
    5.8988    2.8500   -0.5522 H   0  0  0  0  0  0
    8.4688    3.1438    3.5585 H   0  0  0  0  0  0
   10.6345    4.2736    3.2604 H   0  0  0  0  0  0
   11.4819    4.7380    0.9971 H   0  0  0  0  0  0
   10.1676    4.0744   -0.9750 H   0  0  0  0  0  0
    8.0062    2.9332   -0.6893 H   0  0  0  0  0  0
   -2.0377   -0.1758    0.0214 H   0  0  0  0  0  0
   -1.2224   -1.6446    0.0054 H   0  0  0  0  0  0
  1  2  1  0  0  0
  1  6  2  0  0  0
  2  3  2  0  0  0
  2 20  1  0  0  0
  3  4  1  0  0  0
  4  5  2  0  0  0
  4 11  1  0  0  0
  5  6  1  0  0  0
  5  8  1  0  0  0
  6  7  1  0  0  0
  7 21  1  0  0  0
  7 22  1  0  0  0
  8  9  2  0  0  0
  9 10  1  0  0  0
  9 12  1  0  0  0
 10 11  2  0  0  0
 10 23  1  0  0  0
 12 13  1  0  0  0
 12 24  1  0  0  0
 12 25  1  0  0  0
 13 14  1  0  0  0
 14 15  1  0  0  0
 14 19  2  0  0  0
 15 16  2  0  0  0
 15 26  1  0  0  0
 16 17  1  0  0  0
 16 27  1  0  0  0
 17 18  2  0  0  0
 17 28  1  0  0  0
 18 19  1  0  0  0
 18 29  1  0  0  0
 19 30  1  0  0  0
 20 31  1  0  0  0
 20 32  1  0  0  0
M  END
>  <Activity>
3.60906

>  <set_rl>
1

>  <Min_dist>
999.9

>  <Avg_dist>
999.9

>  <PC_uM>
9.5

>  <TG_uM>
0.77

>  <RL_uM>
246

$$$$
1-235777
 Wcorina  11170919323D 1   1.00000     0.00000              
CORINA evaluation license 3.46 0067  05.08.2008
 39 42  0  0  0  0  0  0  0  0999 V2000
   -0.0160    1.3254    0.0093 N   0  0  0  0  0  0
    0.0021   -0.0041    0.0020 C   0  0  0  0  0  0
    1.1110   -0.7161   -0.0124 N   0  0  0  0  0  0
    2.3124   -0.1248   -0.0207 C   0  0  0  0  0  0
    2.3723    1.2909   -0.0136 C   0  0  0  0  0  0
    1.1076    2.0287    0.0024 C   0  0  0  0  0  0
    1.0862    3.4062    0.0095 N   0  0  0  0  0  0
    3.5496    1.9077   -0.0211 N   0  0  0  0  0  0
    4.6555    1.1944   -0.0351 C   0  0  0  0  0  0
    4.6023   -0.1990   -0.0420 C   0  0  0  0  0  0
    3.4467   -0.8291   -0.0348 N   0  0  0  0  0  0
    5.9922    1.8902   -0.0441 C   0  0  0  0  0  0
    6.3569    2.2294   -1.4218 N   0  0  0  0  0  0
    7.5593    2.8827   -1.6834 C   0  0  0  0  0  0
    8.4107    3.2131   -0.6503 C   0  0  0  0  0  0
    9.6137    3.8657   -0.9011 C   0  0  0  0  0  0
    9.9834    4.1961   -2.1693 C   0  0  0  0  0  0
    9.1443    3.8774   -3.2505 C   0  0  0  0  0  0
    7.9197    3.2073   -3.0088 C   0  0  0  0  0  0
    7.0856    2.8839   -4.0904 C   0  0  0  0  0  0
    7.4654    3.2120   -5.3561 C   0  0  0  0  0  0
    8.6727    3.8653   -5.5956 C   0  0  0  0  0  0
    9.5004    4.2058   -4.5701 C   0  0  0  0  0  0
   -1.2060   -0.6748    0.0104 N   0  0  0  0  0  0
    0.2388    3.8780    0.0198 H   0  0  0  0  0  0
    1.9186    3.9042    0.0043 H   0  0  0  0  0  0
    5.5202   -0.7680   -0.0535 H   0  0  0  0  0  0
    5.9314    2.8017    0.5506 H   0  0  0  0  0  0
    6.7485    1.2296    0.3799 H   0  0  0  0  0  0
    5.7613    1.9990   -2.1519 H   0  0  0  0  0  0
    8.1405    2.9628    0.3649 H   0  0  0  0  0  0
   10.2648    4.1146   -0.0762 H   0  0  0  0  0  0
   10.9208    4.7032   -2.3441 H   0  0  0  0  0  0
    6.1474    2.3771   -3.9195 H   0  0  0  0  0  0
    6.8217    2.9620   -6.1865 H   0  0  0  0  0  0
    8.9511    4.1142   -6.6090 H   0  0  0  0  0  0
   10.4326    4.7130   -4.7706 H   0  0  0  0  0  0
   -2.0377   -0.1758    0.0214 H   0  0  0  0  0  0
   -1.2224   -1.6446    0.0054 H   0  0  0  0  0  0
  1  2  1  0  0  0
  1  6  2  0  0  0
  2  3  2  0  0  0
  2 24  1  0  0  0
  3  4  1  0  0  0
  4  5  2  0  0  0
  4 11  1  0  0  0
  5  6  1  0  0  0
  5  8  1  0  0  0
  6  7  1  0  0  0
  7 25  1  0  0  0
  7 26  1  0  0  0
  8  9  2  0  0  0
  9 10  1  0  0  0
  9 12  1  0  0  0
 10 11  2  0  0  0
 10 27  1  0  0  0
 12 13  1  0  0  0
 12 28  1  0  0  0
 12 29  1  0  0  0
 13 14  1  0  0  0
 13 30  1  0  0  0
 14 15  1  0  0  0
 14 19  2  0  0  0
 15 16  2  0  0  0
 15 31  1  0  0  0
 16 17  1  0  0  0
 16 32  1  0  0  0
 17 18  2  0  0  0
 17 33  1  0  0  0
 18 19  1  0  0  0
 18 23  1  0  0  0
 19 20  1  0  0  0
 20 21  2  0  0  0
 20 34  1  0  0  0
 21 22  1  0  0  0
 21 35  1  0  0  0
 22 23  2  0  0  0
 22 36  1  0  0  0
 23 37  1  0  0  0
 24 38  1  0  0  0
 24 39  1  0  0  0
M  END
>  <Activity>
5.89963

>  <set_rl>
1

>  <Min_dist>
999.9

>  <Avg_dist>
999.9

>  <PC_uM>
0.13

>  <TG_uM>
0.076

>  <RL_uM>
1.26

$$$$
12-4D
 Wcorina  11170919323D 1   1.00000     0.00000              
CORINA evaluation license 3.46 0067  05.08.2008
 42 46  0  0  0  0  0  0  0  0999 V2000
   -0.0160    1.3254    0.0093 N   0  0  0  0  0  0
    0.0021   -0.0041    0.0020 C   0  0  0  0  0  0
    1.1110   -0.7161   -0.0124 N   0  0  0  0  0  0
    2.3124   -0.1248   -0.0207 C   0  0  0  0  0  0
    2.3723    1.2909   -0.0136 C   0  0  0  0  0  0
    1.1076    2.0287    0.0024 C   0  0  0  0  0  0
    1.0862    3.4062    0.0095 N   0  0  0  0  0  0
    3.5496    1.9077   -0.0211 N   0  0  0  0  0  0
    4.6555    1.1944   -0.0351 C   0  0  0  0  0  0
    4.6023   -0.1990   -0.0420 C   0  0  0  0  0  0
    3.4467   -0.8291   -0.0348 N   0  0  0  0  0  0
    5.9922    1.8902   -0.0441 C   0  0  0  0  0  0
    6.3569    2.2294   -1.4218 N   0  0  0  0  0  0
    5.9859    3.4594   -1.9899 C   0  0  0  0  0  0
    6.0879    3.6299   -3.3694 C   0  0  0  0  0  0
    5.7290    4.8421   -3.9355 C   0  0  0  0  0  0
    5.2709    5.8724   -3.1332 C   0  0  0  0  0  0
    5.1680    5.6994   -1.7664 C   0  0  0  0  0  0
    5.5253    4.4916   -1.1917 C   0  0  0  0  0  0
    6.5312    2.6170   -4.1578 O   0  0  0  0  0  0
    7.1634    1.5551   -3.5949 C   0  0  0  0  0  0
    7.0947    1.3381   -2.2185 C   0  0  0  0  0  0
    7.7425    0.2567   -1.6480 C   0  0  0  0  0  0
    8.4685   -0.6105   -2.4464 C   0  0  0  0  0  0
    8.5455   -0.3959   -3.8091 C   0  0  0  0  0  0
    7.8877    0.6803   -4.3877 C   0  0  0  0  0  0
   -1.2060   -0.6748    0.0104 N   0  0  0  0  0  0
    0.2388    3.8780    0.0198 H   0  0  0  0  0  0
    1.9186    3.9042    0.0043 H   0  0  0  0  0  0
    5.5202   -0.7680   -0.0535 H   0  0  0  0  0  0
    5.9314    2.8017    0.5506 H   0  0  0  0  0  0
    6.7485    1.2296    0.3799 H   0  0  0  0  0  0
    5.8070    4.9833   -5.0034 H   0  0  0  0  0  0
    4.9927    6.8166   -3.5777 H   0  0  0  0  0  0
    4.8085    6.5069   -1.1457 H   0  0  0  0  0  0
    5.4453    4.3556   -0.1233 H   0  0  0  0  0  0
    7.6821    0.0898   -0.5827 H   0  0  0  0  0  0
    8.9753   -1.4552   -2.0037 H   0  0  0  0  0  0
    9.1138   -1.0739   -4.4286 H   0  0  0  0  0  0
    7.9510    0.8438   -5.4534 H   0  0  0  0  0  0
   -2.0377   -0.1758    0.0214 H   0  0  0  0  0  0
   -1.2224   -1.6446    0.0054 H   0  0  0  0  0  0
  1  2  1  0  0  0
  1  6  2  0  0  0
  2  3  2  0  0  0
  2 27  1  0  0  0
  3  4  1  0  0  0
  4  5  2  0  0  0
  4 11  1  0  0  0
  5  6  1  0  0  0
  5  8  1  0  0  0
  6  7  1  0  0  0
  7 28  1  0  0  0
  7 29  1  0  0  0
  8  9  2  0  0  0
  9 10  1  0  0  0
  9 12  1  0  0  0
 10 11  2  0  0  0
 10 30  1  0  0  0
 12 13  1  0  0  0
 12 31  1  0  0  0
 12 32  1  0  0  0
 13 14  1  0  0  0
 13 22  1  0  0  0
 14 15  1  0  0  0
 14 19  2  0  0  0
 15 16  2  0  0  0
 15 20  1  0  0  0
 16 17  1  0  0  0
 16 33  1  0  0  0
 17 18  2  0  0  0
 17 34  1  0  0  0
 18 19  1  0  0  0
 18 35  1  0  0  0
 19 36  1  0  0  0
 20 21  1  0  0  0
 21 22  1  0  0  0
 21 26  2  0  0  0
 22 23  2  0  0  0
 23 24  1  0  0  0
 23 37  1  0  0  0
 24 25  2  0  0  0
 24 38  1  0  0  0
 25 26  1  0  0  0
 25 39  1  0  0  0
 26 40  1  0  0  0
 27 41  1  0  0  0
 27 42  1  0  0  0
M  END
>  <Activity>
4.88606

>  <set_rl>
1

>  <Min_dist>
999.9

>  <Avg_dist>
999.9

>  <PC_uM>
3.4

>  <TG_uM>
2.2

>  <RL_uM>
13

$$$$
12-4B
 Wcorina  11170919323D 1   1.00000     0.00000              
CORINA evaluation license 3.46 0067  05.08.2008
 47 51  0  0  0  0  0  0  0  0999 V2000
   11.2593    1.7691    2.8991 N   0  0  0  0  0  0
   11.0463    2.9113    3.5455 C   0  0  0  0  0  0
    9.9533    3.6339    3.4040 N   0  0  0  0  0  0
    8.9710    3.2479    2.5798 C   0  0  0  0  0  0
    9.1274    2.0396    1.8564 C   0  0  0  0  0  0
   10.3629    1.2791    2.0544 C   0  0  0  0  0  0
   10.5863    0.0956    1.3855 N   0  0  0  0  0  0
    8.1702    1.6290    1.0308 N   0  0  0  0  0  0
    7.0795    2.3522    0.8915 C   0  0  0  0  0  0
    6.9205    3.5421    1.6010 C   0  0  0  0  0  0
    7.8563    3.9662    2.4236 N   0  0  0  0  0  0
    5.9922    1.8902   -0.0441 C   0  0  0  0  0  0
    6.2989    2.3338   -1.4062 N   0  0  0  0  0  0
    5.7357    3.5230   -1.8584 C   0  0  0  0  0  0
    6.5827    4.5658   -2.1302 C   0  0  0  0  0  0
    6.0684    5.7799   -2.5548 C   0  0  0  0  0  0
    4.7018    5.9230   -2.7174 C   0  0  0  0  0  0
    3.8508    4.8643   -2.4586 C   0  0  0  0  0  0
    4.3640    3.6546   -2.0256 C   0  0  0  0  0  0
    8.0644    4.3833   -1.9936 C   0  0  0  0  0  0
    8.6323    3.4698   -3.0518 C   0  0  0  0  0  0
    8.1680    2.0378   -2.9543 C   0  0  0  0  0  0
    7.1428    1.5500   -2.1831 C   0  0  0  0  0  0
    6.8859    0.1736   -2.1607 C   0  0  0  0  0  0
    7.6285   -0.6965   -2.9260 C   0  0  0  0  0  0
    8.6398   -0.1990   -3.7275 C   0  0  0  0  0  0
    8.8978    1.1419   -3.7409 C   0  0  0  0  0  0
   12.0226    3.3645    4.4121 N   0  0  0  0  0  0
   11.4110   -0.3944    1.5290 H   0  0  0  0  0  0
    9.9188   -0.2476    0.7710 H   0  0  0  0  0  0
    6.0186    4.1225    1.4741 H   0  0  0  0  0  0
    5.9314    0.8021   -0.0213 H   0  0  0  0  0  0
    5.0383    2.3140    0.2700 H   0  0  0  0  0  0
    6.7297    6.6094   -2.7573 H   0  0  0  0  0  0
    4.2970    6.8680   -3.0482 H   0  0  0  0  0  0
    2.7858    4.9817   -2.5942 H   0  0  0  0  0  0
    3.7059    2.8233   -1.8206 H   0  0  0  0  0  0
    8.5485    5.3568   -2.0710 H   0  0  0  0  0  0
    8.2789    3.9618   -1.0115 H   0  0  0  0  0  0
    8.3516    3.8584   -4.0308 H   0  0  0  0  0  0
    9.7195    3.4867   -2.9760 H   0  0  0  0  0  0
    6.0945   -0.2105   -1.5342 H   0  0  0  0  0  0
    7.4234   -1.7565   -2.9011 H   0  0  0  0  0  0
    9.2194   -0.8688   -4.3455 H   0  0  0  0  0  0
    9.6926    1.5166   -4.3688 H   0  0  0  0  0  0
   12.8371    2.8524    4.5357 H   0  0  0  0  0  0
   11.8934    4.1947    4.8968 H   0  0  0  0  0  0
  1  2  1  0  0  0
  1  6  2  0  0  0
  2  3  2  0  0  0
  2 28  1  0  0  0
  3  4  1  0  0  0
  4  5  2  0  0  0
  4 11  1  0  0  0
  5  6  1  0  0  0
  5  8  1  0  0  0
  6  7  1  0  0  0
  7 29  1  0  0  0
  7 30  1  0  0  0
  8  9  2  0  0  0
  9 10  1  0  0  0
  9 12  1  0  0  0
 10 11  2  0  0  0
 10 31  1  0  0  0
 12 13  1  0  0  0
 12 32  1  0  0  0
 12 33  1  0  0  0
 13 14  1  0  0  0
 13 23  1  0  0  0
 14 15  1  0  0  0
 14 19  2  0  0  0
 15 16  2  0  0  0
 15 20  1  0  0  0
 16 17  1  0  0  0
 16 34  1  0  0  0
 17 18  2  0  0  0
 17 35  1  0  0  0
 18 19  1  0  0  0
 18 36  1  0  0  0
 19 37  1  0  0  0
 20 21  1  0  0  0
 20 38  1  0  0  0
 20 39  1  0  0  0
 21 22  1  0  0  0
 21 40  1  0  0  0
 21 41  1  0  0  0
 22 23  1  0  0  0
 22 27  2  0  0  0
 23 24  2  0  0  0
 24 25  1  0  0  0
 24 42  1  0  0  0
 25 26  2  0  0  0
 25 43  1  0  0  0
 26 27  1  0  0  0
 26 44  1  0  0  0
 27 45  1  0  0  0
 28 46  1  0  0  0
 28 47  1  0  0  0
M  END
>  <Activity>
5.29243

>  <set_rl>
1

>  <Min_dist>
999.9

>  <Avg_dist>
999.9

>  <PC_uM>
1.4

>  <TG_uM>
0.91

>  <RL_uM>
5.1

$$$$
1-122870
 Wcorina  11170919323D 1   1.00000     0.00000              
CORINA evaluation license 3.46 0067  05.08.2008
 57 59  0  0  0  0  0  0  0  0999 V2000
    0.0759    1.3312   -0.2307 N   0  0  0  0  0  0  0  0  0  0  0  0
    0.0942    0.0011   -0.2472 C   0  0  0  0  0  0  0  0  0  0  0  0
    1.1486   -0.7030    0.1171 N   0  0  0  0  0  0  0  0  0  0  0  0
    2.2676   -0.0872    0.5272 C   0  0  0  0  0  0  0  0  0  0  0  0
    2.2938    1.3280    0.5610 C   0  0  0  0  0  0  0  0  0  0  0  0
    1.1310    2.0316    0.1580 C   0  0  0  0  0  0  0  0  0  0  0  0
    1.0991    3.4096    0.1700 N   0  0  0  0  0  0  0  0  0  0  0  0
    3.4510    1.9895    0.9856 C   0  0  0  0  0  0  0  0  0  0  0  0
    4.5415    1.2616    1.3624 C   0  0  0  0  0  0  0  0  0  0  0  0
    4.5180   -0.1297    1.3300 C   0  0  0  0  0  0  0  0  0  0  0  0
    3.4056   -0.8040    0.9216 C   0  0  0  0  0  0  0  0  0  0  0  0
    5.7886    1.9735    1.8194 C   0  0  0  0  0  0  0  0  0  0  0  0
    5.6278    2.3939    3.2136 N   0  0  0  0  0  0  0  0  0  0  0  0
    6.6552    3.0745    3.8574 C   0  0  0  0  0  0  0  0  0  0  0  0
    6.5009    3.4733    5.1823 C   0  0  0  0  0  0  0  0  0  0  0  0
    7.5158    4.1472    5.8222 C   0  0  0  0  0  0  0  0  0  0  0  0
    8.7028    4.4311    5.1405 C   0  0  0  0  0  0  0  0  0  0  0  0
    8.8547    4.0293    3.8102 C   0  0  0  0  0  0  0  0  0  0  0  0
    7.8383    3.3508    3.1776 C   0  0  0  0  0  0  0  0  0  0  0  0
    9.7926    5.1537    5.8234 C   0  0  0  0  0  0  0  0  0  0  0  0
    9.6590    5.5030    6.9805 O   0  0  0  0  0  0  0  0  0  0  0  0
   10.9364    5.4268    5.1649 N   0  0  0  0  0  0  0  0  0  0  0  0
   12.0187    6.1444    5.8431 C   0  0  0  0  0  0  0  0  0  0  0  0
   12.8657    5.1644    6.6133 C   0  0  0  0  0  0  0  0  0  0  0  0
   12.5933    3.9874    6.5975 O   0  0  0  0  0  0  0  0  0  0  0  0
   13.9228    5.5992    7.3171 O   0  0  0  0  0  0  0  0  0  0  0  0
   12.8845    6.8610    4.8049 C   0  0  0  0  0  0  0  0  0  0  0  0
   12.0558    7.9424    4.1087 C   0  0  0  0  0  0  0  0  0  0  0  0
   12.9086    8.6482    3.0861 C   0  0  0  0  0  0  0  0  0  0  0  0
   14.0609    8.3200    2.9301 O   0  0  0  0  0  0  0  0  0  0  0  0
   12.3880    9.6416    2.3485 O   0  0  0  0  0  0  0  0  0  0  0  0
    3.4928    3.4953    1.0260 C   0  0  0  0  0  0  0  0  0  0  0  0
   -1.0402   -0.6719   -0.6633 N   0  0  0  0  0  0  0  0  0  0  0  0
    1.4813    3.8971    0.9164 H   0  0  0  0  0  0  0  0  0  0  0  0
    0.6945    3.8918   -0.5680 H   0  0  0  0  0  0  0  0  0  0  0  0
    5.3941   -0.6835    1.6332 H   0  0  0  0  0  0  0  0  0  0  0  0
    3.4016   -1.8838    0.9016 H   0  0  0  0  0  0  0  0  0  0  0  0
    6.6417    1.2997    1.7392 H   0  0  0  0  0  0  0  0  0  0  0  0
    5.9572    2.8494    1.1930 H   0  0  0  0  0  0  0  0  0  0  0  0
    4.8046    2.1973    3.6876 H   0  0  0  0  0  0  0  0  0  0  0  0
    5.5835    3.2540    5.7083 H   0  0  0  0  0  0  0  0  0  0  0  0
    7.3954    4.4566    6.8499 H   0  0  0  0  0  0  0  0  0  0  0  0
    9.7704    4.2476    3.2808 H   0  0  0  0  0  0  0  0  0  0  0  0
    7.9569    3.0360    2.1513 H   0  0  0  0  0  0  0  0  0  0  0  0
   11.0430    5.1482    4.2419 H   0  0  0  0  0  0  0  0  0  0  0  0
   11.5945    6.8766    6.5302 H   0  0  0  0  0  0  0  0  0  0  0  0
   13.7396    7.3210    5.3001 H   0  0  0  0  0  0  0  0  0  0  0  0
   13.2365    6.1410    4.0661 H   0  0  0  0  0  0  0  0  0  0  0  0
   11.2007    7.4824    3.6135 H   0  0  0  0  0  0  0  0  0  0  0  0
   11.7038    8.6624    4.8475 H   0  0  0  0  0  0  0  0  0  0  0  0
    3.0355    3.8468    1.9509 H   0  0  0  0  0  0  0  0  0  0  0  0
    4.5288    3.8313    0.9824 H   0  0  0  0  0  0  0  0  0  0  0  0
    2.9444    3.8970    0.1740 H   0  0  0  0  0  0  0  0  0  0  0  0
   -1.8271   -0.1741   -0.9353 H   0  0  0  0  0  0  0  0  0  0  0  0
   -1.0490   -1.6416   -0.6832 H   0  0  0  0  0  0  0  0  0  0  0  0
   14.4360    4.9334    7.7950 H   0  0  0  0  0  0  0  0  0  0  0  0
   12.9736   10.0643    1.7055 H   0  0  0  0  0  0  0  0  0  0  0  0
  1  2  1  0  0  0  0
  1  6  2  0  0  0  0
  2  3  2  0  0  0  0
  2 33  1  0  0  0  0
  3  4  1  0  0  0  0
  4  5  2  0  0  0  0
  4 11  1  0  0  0  0
  5  6  1  0  0  0  0
  5  8  1  0  0  0  0
  6  7  1  0  0  0  0
  7 34  1  0  0  0  0
  7 35  1  0  0  0  0
  8  9  2  0  0  0  0
  8 32  1  0  0  0  0
  9 10  1  0  0  0  0
  9 12  1  0  0  0  0
 10 11  2  0  0  0  0
 10 36  1  0  0  0  0
 11 37  1  0  0  0  0
 12 13  1  0  0  0  0
 12 38  1  0  0  0  0
 12 39  1  0  0  0  0
 13 14  1  0  0  0  0
 13 40  1  0  0  0  0
 14 15  1  0  0  0  0
 14 19  2  0  0  0  0
 15 16  2  0  0  0  0
 15 41  1  0  0  0  0
 16 17  1  0  0  0  0
 16 42  1  0  0  0  0
 17 18  2  0  0  0  0
 17 20  1  0  0  0  0
 18 19  1  0  0  0  0
 18 43  1  0  0  0  0
 19 44  1  0  0  0  0
 20 21  2  0  0  0  0
 20 22  1  0  0  0  0
 22 23  1  0  0  0  0
 22 45  1  0  0  0  0
 23 24  1  0  0  0  0
 23 27  1  0  0  0  0
 23 46  1  0  0  0  0
 24 25  2  0  0  0  0
 24 26  1  0  0  0  0
 26 56  1  0  0  0  0
 27 28  1  0  0  0  0
 27 47  1  0  0  0  0
 27 48  1  0  0  0  0
 28 29  1  0  0  0  0
 28 49  1  0  0  0  0
 28 50  1  0  0  0  0
 29 30  2  0  0  0  0
 29 31  1  0  0  0  0
 31 57  1  0  0  0  0
 32 51  1  0  0  0  0
 32 52  1  0  0  0  0
 32 53  1  0  0  0  0
 33 54  1  0  0  0  0
 33 55  1  0  0  0  0
M  END
>  <Activity>
9.80688

>  <set_rl>
1

>  <Min_dist>
999.9

>  <Avg_dist>
999.9

>  <PC_uM>
0.00042

>  <TG_uM>
0.00133

>  <RL_uM>
0.000156

$$$$
14-28
 Wcorina  11170919323D 1   1.00000     0.00000              
CORINA evaluation license 3.46 0067  05.08.2008
 43 45  0  0  0  0  0  0  0  0999 V2000
    0.0128    1.3253    0.2526 N   0  0  0  0  0  0
    0.0312   -0.0048    0.2481 C   0  0  0  0  0  0
    1.1226   -0.7027   -0.0016 N   0  0  0  0  0  0
    2.2809   -0.0800   -0.2668 C   0  0  0  0  0  0
    2.3079    1.3357   -0.2732 C   0  0  0  0  0  0
    1.1051    2.0321    0.0024 C   0  0  0  0  0  0
    1.0724    3.4101    0.0106 N   0  0  0  0  0  0
    3.5067    2.0046   -0.5482 C   0  0  0  0  0  0
    4.6360    1.2817   -0.8070 C   0  0  0  0  0  0
    4.6103   -0.1093   -0.8008 C   0  0  0  0  0  0
    3.4587   -0.7899   -0.5357 C   0  0  0  0  0  0
    5.9271    2.0002   -1.1036 C   0  0  0  0  0  0
    6.5382    2.4445    0.1515 N   0  0  0  0  0  0
    7.7527    3.1397    0.1308 C   0  0  0  0  0  0
    8.3788    3.4087   -1.0772 C   0  0  0  0  0  0
    9.5816    4.0980   -1.0945 C   0  0  0  0  0  0
   10.1587    4.5179    0.0948 C   0  0  0  0  0  0
    9.5365    4.2505    1.3004 C   0  0  0  0  0  0
    8.3320    3.5678    1.3231 C   0  0  0  0  0  0
    7.7173    3.3105    2.5098 O   0  0  0  0  0  0
    8.3683    3.7790    3.6925 C   0  0  0  0  0  0
   10.1963    4.3621   -2.2783 O   0  0  0  0  0  0
   11.4327    5.0763   -2.2221 C   0  0  0  0  0  0
    3.5569    3.7399   -0.5607 Cl  0  0  0  0  0  0
   -1.1429   -0.6846    0.5170 N   0  0  0  0  0  0
    0.5859    3.8796    0.7061 H   0  0  0  0  0  0
    1.5358    3.9104   -0.6793 H   0  0  0  0  0  0
    5.5167   -0.6586   -1.0085 H   0  0  0  0  0  0
    3.4542   -1.8699   -0.5346 H   0  0  0  0  0  0
    6.6086    1.3244   -1.6203 H   0  0  0  0  0  0
    5.7247    2.8651   -1.7354 H   0  0  0  0  0  0
    6.1011    2.2569    0.9969 H   0  0  0  0  0  0
    7.9300    3.0812   -2.0034 H   0  0  0  0  0  0
   11.0959    5.0544    0.0793 H   0  0  0  0  0  0
    9.9883    4.5783    2.2249 H   0  0  0  0  0  0
    7.7744    3.5083    4.5655 H   0  0  0  0  0  0
    9.3553    3.3228    3.7689 H   0  0  0  0  0  0
    8.4716    4.8630    3.6452 H   0  0  0  0  0  0
   11.2708    6.0468   -1.7532 H   0  0  0  0  0  0
   12.1552    4.5065   -1.6377 H   0  0  0  0  0  0
   11.8154    5.2203   -3.2325 H   0  0  0  0  0  0
   -1.9570   -0.1915    0.7036 H   0  0  0  0  0  0
   -1.1521   -1.6546    0.5190 H   0  0  0  0  0  0
  1  2  1  0  0  0
  1  6  2  0  0  0
  2  3  2  0  0  0
  2 25  1  0  0  0
  3  4  1  0  0  0
  4  5  2  0  0  0
  4 11  1  0  0  0
  5  6  1  0  0  0
  5  8  1  0  0  0
  6  7  1  0  0  0
  7 26  1  0  0  0
  7 27  1  0  0  0
  8  9  2  0  0  0
  8 24  1  0  0  0
  9 10  1  0  0  0
  9 12  1  0  0  0
 10 11  2  0  0  0
 10 28  1  0  0  0
 11 29  1  0  0  0
 12 13  1  0  0  0
 12 30  1  0  0  0
 12 31  1  0  0  0
 13 14  1  0  0  0
 13 32  1  0  0  0
 14 15  1  0  0  0
 14 19  2  0  0  0
 15 16  2  0  0  0
 15 33  1  0  0  0
 16 17  1  0  0  0
 16 22  1  0  0  0
 17 18  2  0  0  0
 17 34  1  0  0  0
 18 19  1  0  0  0
 18 35  1  0  0  0
 19 20  1  0  0  0
 20 21  1  0  0  0
 21 36  1  0  0  0
 21 37  1  0  0  0
 21 38  1  0  0  0
 22 23  1  0  0  0
 23 39  1  0  0  0
 23 40  1  0  0  0
 23 41  1  0  0  0
 25 42  1  0  0  0
 25 43  1  0  0  0
M  END
>  <Activity>
7.35655

>  <set_rl>
1

>  <Min_dist>
999.9

>  <Avg_dist>
999.9

>  <PC_uM>
0.051

>  <TG_uM>
0.03

>  <RL_uM>
0.044

$$$$
14-29
 Wcorina  11170919323D 1   1.00000     0.00000              
CORINA evaluation license 3.46 0067  05.08.2008
 47 49  0  0  0  0  0  0  0  0999 V2000
    0.0128    1.3253    0.2526 N   0  0  0  0  0  0
    0.0312   -0.0048    0.2481 C   0  0  0  0  0  0
    1.1226   -0.7027   -0.0016 N   0  0  0  0  0  0
    2.2809   -0.0800   -0.2668 C   0  0  0  0  0  0
    2.3079    1.3357   -0.2732 C   0  0  0  0  0  0
    1.1051    2.0321    0.0024 C   0  0  0  0  0  0
    1.0724    3.4101    0.0106 N   0  0  0  0  0  0
    3.5067    2.0046   -0.5482 C   0  0  0  0  0  0
    4.6360    1.2817   -0.8070 C   0  0  0  0  0  0
    4.6103   -0.1093   -0.8008 C   0  0  0  0  0  0
    3.4587   -0.7899   -0.5357 C   0  0  0  0  0  0
    5.9271    2.0002   -1.1036 C   0  0  0  0  0  0
    6.5382    2.4445    0.1515 N   0  0  0  0  0  0
    7.7523    3.1395    0.1309 C   0  0  0  0  0  0
    8.3311    3.5604    1.3205 C   0  0  0  0  0  0
    9.5340    4.2490    1.3008 C   0  0  0  0  0  0
   10.1605    4.5180    0.0899 C   0  0  0  0  0  0
    9.5806    4.0964   -1.1005 C   0  0  0  0  0  0
    8.3805    3.4029   -1.0789 C   0  0  0  0  0  0
   10.1930    4.3591   -2.2859 O   0  0  0  0  0  0
    9.5403    3.8962   -3.4699 C   0  0  0  0  0  0
   11.3421    5.1949    0.0698 O   0  0  0  0  0  0
   12.5376    4.4154    0.1427 C   0  0  0  0  0  0
   10.1006    4.6617    2.4661 O   0  0  0  0  0  0
    9.4014    4.3512    3.6731 C   0  0  0  0  0  0
    3.5569    3.7399   -0.5607 Cl  0  0  0  0  0  0
   -1.1429   -0.6846    0.5170 N   0  0  0  0  0  0
    0.5859    3.8796    0.7061 H   0  0  0  0  0  0
    1.5358    3.9104   -0.6793 H   0  0  0  0  0  0
    5.5167   -0.6586   -1.0085 H   0  0  0  0  0  0
    3.4542   -1.8699   -0.5346 H   0  0  0  0  0  0
    6.6086    1.3244   -1.6203 H   0  0  0  0  0  0
    5.7247    2.8651   -1.7354 H   0  0  0  0  0  0
    6.1011    2.2569    0.9969 H   0  0  0  0  0  0
    7.8439    3.3516    2.2614 H   0  0  0  0  0  0
    7.9320    3.0710   -2.0036 H   0  0  0  0  0  0
   10.1329    4.1710   -4.3425 H   0  0  0  0  0  0
    9.4370    2.8120   -3.4276 H   0  0  0  0  0  0
    8.5532    4.3527   -3.5427 H   0  0  0  0  0  0
   12.5430    3.8444    1.0712 H   0  0  0  0  0  0
   12.5776    3.7312   -0.7048 H   0  0  0  0  0  0
   13.4042    5.0761    0.1175 H   0  0  0  0  0  0
    9.9604    4.7360    4.5261 H   0  0  0  0  0  0
    8.4133    4.8108    3.6490 H   0  0  0  0  0  0
    9.2972    3.2701    3.7648 H   0  0  0  0  0  0
   -1.9570   -0.1915    0.7036 H   0  0  0  0  0  0
   -1.1521   -1.6546    0.5190 H   0  0  0  0  0  0
  1  2  1  0  0  0
  1  6  2  0  0  0
  2  3  2  0  0  0
  2 27  1  0  0  0
  3  4  1  0  0  0
  4  5  2  0  0  0
  4 11  1  0  0  0
  5  6  1  0  0  0
  5  8  1  0  0  0
  6  7  1  0  0  0
  7 28  1  0  0  0
  7 29  1  0  0  0
  8  9  2  0  0  0
  8 26  1  0  0  0
  9 10  1  0  0  0
  9 12  1  0  0  0
 10 11  2  0  0  0
 10 30  1  0  0  0
 11 31  1  0  0  0
 12 13  1  0  0  0
 12 32  1  0  0  0
 12 33  1  0  0  0
 13 14  1  0  0  0
 13 34  1  0  0  0
 14 15  1  0  0  0
 14 19  2  0  0  0
 15 16  2  0  0  0
 15 35  1  0  0  0
 16 17  1  0  0  0
 16 24  1  0  0  0
 17 18  2  0  0  0
 17 22  1  0  0  0
 18 19  1  0  0  0
 18 20  1  0  0  0
 19 36  1  0  0  0
 20 21  1  0  0  0
 21 37  1  0  0  0
 21 38  1  0  0  0
 21 39  1  0  0  0
 22 23  1  0  0  0
 23 40  1  0  0  0
 23 41  1  0  0  0
 23 42  1  0  0  0
 24 25  1  0  0  0
 25 43  1  0  0  0
 25 44  1  0  0  0
 25 45  1  0  0  0
 27 46  1  0  0  0
 27 47  1  0  0  0
M  END
>  <Activity>
8.22915

>  <set_rl>
1

>  <Min_dist>
999.9

>  <Avg_dist>
999.9

>  <PC_uM>
0.033

>  <TG_uM>
0.0052

>  <RL_uM>
0.0059

$$$$
9-16B
 Wcorina  11170919323D 1   1.00000     0.00000              
CORINA evaluation license 3.46 0067  05.08.2008
 35 37  0  0  0  0  0  0  0  0999 V2000
   -0.0160    1.3261    0.0093 N   0  0  0  0  0  0
    0.0021   -0.0041    0.0020 C   0  0  0  0  0  0
    1.1210   -0.7028   -0.0124 N   0  0  0  0  0  0
    2.3097   -0.0811   -0.0204 C   0  0  0  0  0  0
    2.3388    1.3344   -0.0131 C   0  0  0  0  0  0
    1.1049    2.0321    0.0024 C   0  0  0  0  0  0
    1.0723    3.4101    0.0097 N   0  0  0  0  0  0
    3.5682    2.0019   -0.0212 C   0  0  0  0  0  0
    4.7253    1.2796   -0.0361 C   0  0  0  0  0  0
    4.6990   -0.1119   -0.0433 C   0  0  0  0  0  0
    3.5174   -0.7921   -0.0353 C   0  0  0  0  0  0
    6.0500    1.9981   -0.0454 C   0  0  0  0  0  0
    6.4927    2.2240    1.3328 N   0  0  0  0  0  0
    7.7028    2.8777    1.5796 C   0  0  0  0  0  0
    8.1238    3.0925    2.8857 C   0  0  0  0  0  0
    9.3202    3.7389    3.1268 C   0  0  0  0  0  0
   10.0994    4.1724    2.0686 C   0  0  0  0  0  0
    9.6823    3.9601    0.7663 C   0  0  0  0  0  0
    8.4897    3.3088    0.5194 C   0  0  0  0  0  0
   11.6027    4.9845    2.3753 Cl  0  0  0  0  0  0
   -1.2029   -0.6830    0.0103 N   0  0  0  0  0  0
    0.2210    3.8750    0.0200 H   0  0  0  0  0  0
    1.9005    3.9149    0.0045 H   0  0  0  0  0  0
    3.6009    3.0814   -0.0161 H   0  0  0  0  0  0
    5.6287   -0.6613   -0.0551 H   0  0  0  0  0  0
    3.5121   -1.8720   -0.0410 H   0  0  0  0  0  0
    6.7886    1.3916   -0.5695 H   0  0  0  0  0  0
    5.9401    2.9562   -0.5533 H   0  0  0  0  0  0
    5.9458    1.9197    2.0739 H   0  0  0  0  0  0
    7.5159    2.7547    3.7120 H   0  0  0  0  0  0
    9.6478    3.9065    4.1422 H   0  0  0  0  0  0
   10.2920    4.3001   -0.0577 H   0  0  0  0  0  0
    8.1671    3.1388   -0.4972 H   0  0  0  0  0  0
   -2.0377   -0.1892    0.0213 H   0  0  0  0  0  0
   -1.2131   -1.6529    0.0052 H   0  0  0  0  0  0
  1  2  1  0  0  0
  1  6  2  0  0  0
  2  3  2  0  0  0
  2 21  1  0  0  0
  3  4  1  0  0  0
  4  5  2  0  0  0
  4 11  1  0  0  0
  5  6  1  0  0  0
  5  8  1  0  0  0
  6  7  1  0  0  0
  7 22  1  0  0  0
  7 23  1  0  0  0
  8  9  2  0  0  0
  8 24  1  0  0  0
  9 10  1  0  0  0
  9 12  1  0  0  0
 10 11  2  0  0  0
 10 25  1  0  0  0
 11 26  1  0  0  0
 12 13  1  0  0  0
 12 27  1  0  0  0
 12 28  1  0  0  0
 13 14  1  0  0  0
 13 29  1  0  0  0
 14 15  1  0  0  0
 14 19  2  0  0  0
 15 16  2  0  0  0
 15 30  1  0  0  0
 16 17  1  0  0  0
 16 31  1  0  0  0
 17 18  2  0  0  0
 17 20  1  0  0  0
 18 19  1  0  0  0
 18 32  1  0  0  0
 19 33  1  0  0  0
 21 34  1  0  0  0
 21 35  1  0  0  0
M  END
>  <Activity>
7.13668

>  <set_rl>
1

>  <Min_dist>
999.9

>  <Avg_dist>
999.9

>  <PC_uM>
0.6

>  <TG_uM>
0.075

>  <RL_uM>
0.073

$$$$
16-11
 Wcorina  11170919323D 1   1.00000     0.00000              
CORINA evaluation license 3.46 0067  05.08.2008
 47 49  0  0  0  0  0  0  0  0999 V2000
   -0.2291    2.6983   -0.2962 N   0  0  0  0  0  0
   -0.4568    1.3976   -0.1354 C   0  0  0  0  0  0
    0.5130    0.5171    0.0210 N   0  0  0  0  0  0
    1.7950    0.9121    0.0234 C   0  0  0  0  0  0
    2.0848    2.2878   -0.1445 C   0  0  0  0  0  0
    1.0018    3.1878   -0.3083 C   0  0  0  0  0  0
    1.2240    4.5377   -0.4762 N   0  0  0  0  0  0
    3.4151    2.7204   -0.1449 C   0  0  0  0  0  0
    4.4181    1.8100    0.0168 C   0  0  0  0  0  0
    4.1355    0.4573    0.1821 C   0  0  0  0  0  0
    2.8498    0.0039    0.1875 C   0  0  0  0  0  0
    5.8515    2.2753    0.0160 C   0  0  0  0  0  0
    6.2585    2.6057    1.3840 N   0  0  0  0  0  0
    7.5566    3.0638    1.6366 C   0  0  0  0  0  0
    8.4585    3.2050    0.5905 C   0  0  0  0  0  0
    9.7442    3.6586    0.8398 C   0  0  0  0  0  0
   10.1308    3.9727    2.1373 C   0  0  0  0  0  0
    9.2280    3.8318    3.1840 C   0  0  0  0  0  0
    7.9402    3.3824    2.9325 C   0  0  0  0  0  0
    6.7090    3.1967    4.3557 Br  0  0  0  0  0  0
    9.6056    4.1385    4.4541 O   0  0  0  0  0  0
   10.2637    3.1131    5.2007 C   0  0  0  0  0  0
   11.3942    4.4180    2.3828 O   0  0  0  0  0  0
   11.6049    5.8306    2.3354 C   0  0  0  0  0  0
   10.6277    3.7959   -0.1851 O   0  0  0  0  0  0
   10.1627    3.4544   -1.4925 C   0  0  0  0  0  0
   -1.7653    0.9496   -0.1316 N   0  0  0  0  0  0
    0.4739    5.1425   -0.5875 H   0  0  0  0  0  0
    2.1305    4.8829   -0.4831 H   0  0  0  0  0  0
    3.6464    3.7675   -0.2727 H   0  0  0  0  0  0
    4.9472   -0.2440    0.3083 H   0  0  0  0  0  0
    2.6453   -1.0486    0.3168 H   0  0  0  0  0  0
    6.4908    1.4821   -0.3717 H   0  0  0  0  0  0
    5.9463    3.1592   -0.6148 H   0  0  0  0  0  0
    5.6282    2.5070    2.1147 H   0  0  0  0  0  0
    8.1582    2.9610   -0.4178 H   0  0  0  0  0  0
   10.5672    3.5076    6.1704 H   0  0  0  0  0  0
    9.5817    2.2754    5.3467 H   0  0  0  0  0  0
   11.1440    2.7741    4.6547 H   0  0  0  0  0  0
   11.2844    6.2134    1.3664 H   0  0  0  0  0  0
   11.0269    6.3108    3.1250 H   0  0  0  0  0  0
   12.6639    6.0450    2.4785 H   0  0  0  0  0  0
   10.9640    3.6091   -2.2150 H   0  0  0  0  0  0
    9.8568    2.4083   -1.5076 H   0  0  0  0  0  0
    9.3126    4.0853   -1.7521 H   0  0  0  0  0  0
   -2.4940    1.5797   -0.2447 H   0  0  0  0  0  0
   -1.9543    0.0052   -0.0159 H   0  0  0  0  0  0
  1  2  1  0  0  0
  1  6  2  0  0  0
  2  3  2  0  0  0
  2 27  1  0  0  0
  3  4  1  0  0  0
  4  5  2  0  0  0
  4 11  1  0  0  0
  5  6  1  0  0  0
  5  8  1  0  0  0
  6  7  1  0  0  0
  7 28  1  0  0  0
  7 29  1  0  0  0
  8  9  2  0  0  0
  8 30  1  0  0  0
  9 10  1  0  0  0
  9 12  1  0  0  0
 10 11  2  0  0  0
 10 31  1  0  0  0
 11 32  1  0  0  0
 12 13  1  0  0  0
 12 33  1  0  0  0
 12 34  1  0  0  0
 13 14  1  0  0  0
 13 35  1  0  0  0
 14 15  1  0  0  0
 14 19  2  0  0  0
 15 16  2  0  0  0
 15 36  1  0  0  0
 16 17  1  0  0  0
 16 25  1  0  0  0
 17 18  2  0  0  0
 17 23  1  0  0  0
 18 19  1  0  0  0
 18 21  1  0  0  0
 19 20  1  0  0  0
 21 22  1  0  0  0
 22 37  1  0  0  0
 22 38  1  0  0  0
 22 39  1  0  0  0
 23 24  1  0  0  0
 24 40  1  0  0  0
 24 41  1  0  0  0
 24 42  1  0  0  0
 25 26  1  0  0  0
 26 43  1  0  0  0
 26 44  1  0  0  0
 26 45  1  0  0  0
 27 46  1  0  0  0
 27 47  1  0  0  0
M  END
>  <Activity>
6.48149

>  <set_rl>
1

>  <Min_dist>
999.9

>  <Avg_dist>
999.9

>  <PC_uM>
0.55

>  <TG_uM>
0.039

>  <RL_uM>
0.33

$$$$
13-14
 Wcorina  11170919323D 1   1.00000     0.00000              
CORINA evaluation license 3.46 0067  05.08.2008
 47 49  0  0  0  0  0  0  0  0999 V2000
    0.0123    1.3256    0.2510 N   0  0  0  0  0  0
    0.0307   -0.0048    0.2465 C   0  0  0  0  0  0
    1.1216   -0.7026   -0.0019 N   0  0  0  0  0  0
    2.2817   -0.0801   -0.2658 C   0  0  0  0  0  0
    2.3084    1.3355   -0.2716 C   0  0  0  0  0  0
    1.1050    2.0320    0.0024 C   0  0  0  0  0  0
    1.0723    3.4107    0.0101 N   0  0  0  0  0  0
    3.5065    2.0064   -0.5431 C   0  0  0  0  0  0
    4.6486    1.2740   -0.8022 C   0  0  0  0  0  0
    4.6142   -0.1225   -0.7946 C   0  0  0  0  0  0
    3.4575   -0.7938   -0.5330 C   0  0  0  0  0  0
    5.8509    1.9369   -1.0751 N   0  0  0  0  0  0
    7.0660    1.1663   -1.3507 C   0  0  0  0  0  0
    8.2114    2.1105   -1.6108 C   0  0  0  0  0  0
    9.0005    2.5425   -0.5613 C   0  0  0  0  0  0
   10.0551    3.4116   -0.7963 C   0  0  0  0  0  0
   10.3186    3.8480   -2.0892 C   0  0  0  0  0  0
    9.5231    3.4109   -3.1417 C   0  0  0  0  0  0
    8.4736    2.5377   -2.8990 C   0  0  0  0  0  0
    9.7766    3.8353   -4.4087 O   0  0  0  0  0  0
    8.9185    3.3454   -5.4409 C   0  0  0  0  0  0
   11.3524    4.7013   -2.3240 O   0  0  0  0  0  0
   12.6239    4.1163   -2.6119 C   0  0  0  0  0  0
   10.8303    3.8368    0.2371 O   0  0  0  0  0  0
   10.5011    3.3480    1.5389 C   0  0  0  0  0  0
    3.5564    3.7416   -0.5547 Cl  0  0  0  0  0  0
   -1.1446   -0.6848    0.5143 N   0  0  0  0  0  0
    0.5856    3.8804    0.7054 H   0  0  0  0  0  0
    1.5359    3.9107   -0.6798 H   0  0  0  0  0  0
    5.5172   -0.6783   -0.9998 H   0  0  0  0  0  0
    3.4472   -1.8737   -0.5310 H   0  0  0  0  0  0
    5.8795    2.9064   -1.0818 H   0  0  0  0  0  0
    7.3008    0.5383   -0.4913 H   0  0  0  0  0  0
    6.9069    0.5380   -2.2271 H   0  0  0  0  0  0
    8.7951    2.2029    0.4432 H   0  0  0  0  0  0
    7.8578    2.1941   -3.7170 H   0  0  0  0  0  0
    8.9798    2.2578   -5.4786 H   0  0  0  0  0  0
    7.8913    3.6443   -5.2319 H   0  0  0  0  0  0
    9.2297    3.7603   -6.3996 H   0  0  0  0  0  0
   12.9389    3.4992   -1.7705 H   0  0  0  0  0  0
   12.5454    3.4983   -3.5064 H   0  0  0  0  0  0
   13.3575    4.9051   -2.7786 H   0  0  0  0  0  0
   10.5726    2.2604    1.5474 H   0  0  0  0  0  0
   11.1955    3.7634    2.2693 H   0  0  0  0  0  0
    9.4843    3.6473    1.7931 H   0  0  0  0  0  0
   -1.9588   -0.1915    0.7001 H   0  0  0  0  0  0
   -1.1540   -1.6548    0.5163 H   0  0  0  0  0  0
  1  2  1  0  0  0
  1  6  2  0  0  0
  2  3  2  0  0  0
  2 27  1  0  0  0
  3  4  1  0  0  0
  4  5  2  0  0  0
  4 11  1  0  0  0
  5  6  1  0  0  0
  5  8  1  0  0  0
  6  7  1  0  0  0
  7 28  1  0  0  0
  7 29  1  0  0  0
  8  9  2  0  0  0
  8 26  1  0  0  0
  9 10  1  0  0  0
  9 12  1  0  0  0
 10 11  2  0  0  0
 10 30  1  0  0  0
 11 31  1  0  0  0
 12 13  1  0  0  0
 12 32  1  0  0  0
 13 14  1  0  0  0
 13 33  1  0  0  0
 13 34  1  0  0  0
 14 15  1  0  0  0
 14 19  2  0  0  0
 15 16  2  0  0  0
 15 35  1  0  0  0
 16 17  1  0  0  0
 16 24  1  0  0  0
 17 18  2  0  0  0
 17 22  1  0  0  0
 18 19  1  0  0  0
 18 20  1  0  0  0
 19 36  1  0  0  0
 20 21  1  0  0  0
 21 37  1  0  0  0
 21 38  1  0  0  0
 21 39  1  0  0  0
 22 23  1  0  0  0
 23 40  1  0  0  0
 23 41  1  0  0  0
 23 42  1  0  0  0
 24 25  1  0  0  0
 25 43  1  0  0  0
 25 44  1  0  0  0
 25 45  1  0  0  0
 27 46  1  0  0  0
 27 47  1  0  0  0
M  END
>  <Activity>
8.22185

>  <set_rl>
1

>  <Min_dist>
999.9

>  <Avg_dist>
999.9

>  <PC_uM>
0.033

>  <TG_uM>
0.007

>  <RL_uM>
0.006

$$$$
15-3
 Wcorina  11170919323D 1   1.00000     0.00000              
CORINA evaluation license 3.46 0067  05.08.2008
 43 45  0  0  0  0  0  0  0  0999 V2000
   -0.0160    1.3262    0.0093 N   0  0  0  0  0  0
    0.0021   -0.0041    0.0020 C   0  0  0  0  0  0
    1.1203   -0.7026   -0.0124 N   0  0  0  0  0  0
    2.3104   -0.0810   -0.0204 C   0  0  0  0  0  0
    2.3389    1.3343   -0.0131 C   0  0  0  0  0  0
    1.1049    2.0319    0.0024 C   0  0  0  0  0  0
    1.0723    3.4106    0.0097 N   0  0  0  0  0  0
    3.5671    2.0040   -0.0208 C   0  0  0  0  0  0
    4.7369    1.2721   -0.0354 C   0  0  0  0  0  0
    4.7015   -0.1253   -0.0425 C   0  0  0  0  0  0
    3.5159   -0.7959   -0.0353 C   0  0  0  0  0  0
    5.9689    1.9343   -0.0436 N   0  0  0  0  0  0
    7.2147    1.1636   -0.0591 C   0  0  0  0  0  0
    8.3893    2.1076   -0.0653 C   0  0  0  0  0  0
    9.0469    2.3843   -1.2484 C   0  0  0  0  0  0
   10.1275    3.2534   -1.2542 C   0  0  0  0  0  0
   10.5483    3.8449   -0.0721 C   0  0  0  0  0  0
    9.8909    3.5683    1.1106 C   0  0  0  0  0  0
    8.8067    2.7030    1.1156 C   0  0  0  0  0  0
    8.1559    2.4351    2.2791 O   0  0  0  0  0  0
    8.6397    3.0833    3.4572 C   0  0  0  0  0  0
   10.7750    3.5254   -2.4186 O   0  0  0  0  0  0
   11.8796    4.4295   -2.3508 C   0  0  0  0  0  0
   -1.2038   -0.6834    0.0103 N   0  0  0  0  0  0
    0.2210    3.8756    0.0200 H   0  0  0  0  0  0
    1.9006    3.9154    0.0045 H   0  0  0  0  0  0
    3.5995    3.0835   -0.0156 H   0  0  0  0  0  0
    5.6274   -0.6812   -0.0543 H   0  0  0  0  0  0
    3.5048   -1.8758   -0.0413 H   0  0  0  0  0  0
    5.9984    2.9038   -0.0390 H   0  0  0  0  0  0
    7.2617    0.5310    0.8273 H   0  0  0  0  0  0
    7.2450    0.5400   -0.9525 H   0  0  0  0  0  0
    8.7196    1.9235   -2.1687 H   0  0  0  0  0  0
   11.3901    4.5215   -0.0766 H   0  0  0  0  0  0
   10.2187    4.0286    2.0310 H   0  0  0  0  0  0
    9.6773    2.7972    3.6293 H   0  0  0  0  0  0
    8.5773    4.1639    3.3289 H   0  0  0  0  0  0
    8.0335    2.7833    4.3119 H   0  0  0  0  0  0
   11.5376    5.3934   -1.9738 H   0  0  0  0  0  0
   12.6388    4.0260   -1.6809 H   0  0  0  0  0  0
   12.3049    4.5588   -3.3461 H   0  0  0  0  0  0
   -2.0386   -0.1896    0.0213 H   0  0  0  0  0  0
   -1.2140   -1.6533    0.0052 H   0  0  0  0  0  0
  1  2  1  0  0  0
  1  6  2  0  0  0
  2  3  2  0  0  0
  2 24  1  0  0  0
  3  4  1  0  0  0
  4  5  2  0  0  0
  4 11  1  0  0  0
  5  6  1  0  0  0
  5  8  1  0  0  0
  6  7  1  0  0  0
  7 25  1  0  0  0
  7 26  1  0  0  0
  8  9  2  0  0  0
  8 27  1  0  0  0
  9 10  1  0  0  0
  9 12  1  0  0  0
 10 11  2  0  0  0
 10 28  1  0  0  0
 11 29  1  0  0  0
 12 13  1  0  0  0
 12 30  1  0  0  0
 13 14  1  0  0  0
 13 31  1  0  0  0
 13 32  1  0  0  0
 14 15  1  0  0  0
 14 19  2  0  0  0
 15 16  2  0  0  0
 15 33  1  0  0  0
 16 17  1  0  0  0
 16 22  1  0  0  0
 17 18  2  0  0  0
 17 34  1  0  0  0
 18 19  1  0  0  0
 18 35  1  0  0  0
 19 20  1  0  0  0
 20 21  1  0  0  0
 21 36  1  0  0  0
 21 37  1  0  0  0
 21 38  1  0  0  0
 22 23  1  0  0  0
 23 39  1  0  0  0
 23 40  1  0  0  0
 23 41  1  0  0  0
 24 42  1  0  0  0
 24 43  1  0  0  0
M  END
>  <Activity>
5.95861

>  <set_rl>
1

>  <Min_dist>
999.9

>  <Avg_dist>
999.9

>  <PC_uM>
4.6

>  <TG_uM>
0.16

>  <RL_uM>
1.1

$$$$
15-11
 Wcorina  11170919323D 1   1.00000     0.00000              
CORINA evaluation license 3.46 0067  05.08.2008
 46 48  0  0  0  0  0  0  0  0999 V2000
   -0.0160    1.3262    0.0093 N   0  0  0  0  0  0
    0.0021   -0.0041    0.0020 C   0  0  0  0  0  0
    1.1203   -0.7026   -0.0124 N   0  0  0  0  0  0
    2.3104   -0.0810   -0.0204 C   0  0  0  0  0  0
    2.3389    1.3343   -0.0131 C   0  0  0  0  0  0
    1.1049    2.0319    0.0024 C   0  0  0  0  0  0
    1.0723    3.4106    0.0097 N   0  0  0  0  0  0
    3.5671    2.0040   -0.0208 C   0  0  0  0  0  0
    4.7369    1.2721   -0.0354 C   0  0  0  0  0  0
    4.7015   -0.1253   -0.0425 C   0  0  0  0  0  0
    3.5159   -0.7959   -0.0353 C   0  0  0  0  0  0
    5.9689    1.9343   -0.0436 N   0  0  0  0  0  0
    7.2147    1.1636   -0.0591 C   0  0  0  0  0  0
    7.6286    0.9065   -1.4851 C   0  0  0  0  0  0
    7.3656   -0.3168   -2.0709 C   0  0  0  0  0  0
    7.7461   -0.5532   -3.3833 C   0  0  0  0  0  0
    8.3907    0.4385   -4.1080 C   0  0  0  0  0  0
    8.6535    1.6614   -3.5224 C   0  0  0  0  0  0
    8.2683    1.8998   -2.2113 C   0  0  0  0  0  0
    8.5220    3.1057   -1.6366 O   0  0  0  0  0  0
    9.1841    4.0822   -2.4429 C   0  0  0  0  0  0
    7.4877   -1.7574   -3.9597 O   0  0  0  0  0  0
    7.9074   -1.9316   -5.3145 C   0  0  0  0  0  0
    6.0135    3.3986   -0.0366 C   0  0  0  0  0  0
   -1.2038   -0.6834    0.0103 N   0  0  0  0  0  0
    0.2210    3.8756    0.0200 H   0  0  0  0  0  0
    1.9006    3.9154    0.0045 H   0  0  0  0  0  0
    3.5995    3.0835   -0.0156 H   0  0  0  0  0  0
    5.6274   -0.6812   -0.0543 H   0  0  0  0  0  0
    3.5048   -1.8758   -0.0413 H   0  0  0  0  0  0
    7.9967    1.7267    0.4503 H   0  0  0  0  0  0
    7.0602    0.2130    0.4515 H   0  0  0  0  0  0
    6.8641   -1.0891   -1.5065 H   0  0  0  0  0  0
    8.6873    0.2543   -5.1300 H   0  0  0  0  0  0
    9.1557    2.4334   -4.0865 H   0  0  0  0  0  0
    8.5778    4.2987   -3.3225 H   0  0  0  0  0  0
    9.3251    4.9956   -1.8650 H   0  0  0  0  0  0
   10.1545    3.6972   -2.7564 H   0  0  0  0  0  0
    7.6411   -2.9335   -5.6514 H   0  0  0  0  0  0
    7.4136   -1.1928   -5.9457 H   0  0  0  0  0  0
    8.9876   -1.8015   -5.3798 H   0  0  0  0  0  0
    6.0341    3.7566    0.9927 H   0  0  0  0  0  0
    6.9092    3.7373   -0.5571 H   0  0  0  0  0  0
    5.1302    3.7914   -0.5402 H   0  0  0  0  0  0
   -2.0386   -0.1896    0.0213 H   0  0  0  0  0  0
   -1.2140   -1.6533    0.0052 H   0  0  0  0  0  0
  1  2  1  0  0  0
  1  6  2  0  0  0
  2  3  2  0  0  0
  2 25  1  0  0  0
  3  4  1  0  0  0
  4  5  2  0  0  0
  4 11  1  0  0  0
  5  6  1  0  0  0
  5  8  1  0  0  0
  6  7  1  0  0  0
  7 26  1  0  0  0
  7 27  1  0  0  0
  8  9  2  0  0  0
  8 28  1  0  0  0
  9 10  1  0  0  0
  9 12  1  0  0  0
 10 11  2  0  0  0
 10 29  1  0  0  0
 11 30  1  0  0  0
 12 13  1  0  0  0
 12 24  1  0  0  0
 13 14  1  0  0  0
 13 31  1  0  0  0
 13 32  1  0  0  0
 14 15  1  0  0  0
 14 19  2  0  0  0
 15 16  2  0  0  0
 15 33  1  0  0  0
 16 17  1  0  0  0
 16 22  1  0  0  0
 17 18  2  0  0  0
 17 34  1  0  0  0
 18 19  1  0  0  0
 18 35  1  0  0  0
 19 20  1  0  0  0
 20 21  1  0  0  0
 21 36  1  0  0  0
 21 37  1  0  0  0
 21 38  1  0  0  0
 22 23  1  0  0  0
 23 39  1  0  0  0
 23 40  1  0  0  0
 23 41  1  0  0  0
 24 42  1  0  0  0
 24 43  1  0  0  0
 24 44  1  0  0  0
 25 45  1  0  0  0
 25 46  1  0  0  0
M  END
>  <Activity>
7.58503

>  <set_rl>
1

>  <Min_dist>
999.9

>  <Avg_dist>
999.9

>  <PC_uM>
0.087

>  <TG_uM>
0.03

>  <RL_uM>
0.026

$$$$
15-5
 Wcorina  11170919323D 1   1.00000     0.00000              
CORINA evaluation license 3.46 0067  05.08.2008
 43 45  0  0  0  0  0  0  0  0999 V2000
   -0.0160    1.3262    0.0093 N   0  0  0  0  0  0
    0.0021   -0.0041    0.0020 C   0  0  0  0  0  0
    1.1203   -0.7026   -0.0124 N   0  0  0  0  0  0
    2.3104   -0.0810   -0.0204 C   0  0  0  0  0  0
    2.3389    1.3343   -0.0131 C   0  0  0  0  0  0
    1.1049    2.0319    0.0024 C   0  0  0  0  0  0
    1.0723    3.4106    0.0097 N   0  0  0  0  0  0
    3.5671    2.0040   -0.0208 C   0  0  0  0  0  0
    4.7369    1.2721   -0.0354 C   0  0  0  0  0  0
    4.7015   -0.1253   -0.0425 C   0  0  0  0  0  0
    3.5159   -0.7959   -0.0353 C   0  0  0  0  0  0
    5.9689    1.9343   -0.0436 N   0  0  0  0  0  0
    7.2147    1.1636   -0.0591 C   0  0  0  0  0  0
    8.3893    2.1076   -0.0653 C   0  0  0  0  0  0
    9.0467    2.3840   -1.2491 C   0  0  0  0  0  0
   10.1236    3.2494   -1.2581 C   0  0  0  0  0  0
   10.5479    3.8434   -0.0777 C   0  0  0  0  0  0
    9.8903    3.5678    1.1109 C   0  0  0  0  0  0
    8.8064    2.7031    1.1165 C   0  0  0  0  0  0
    8.1561    2.4352    2.2794 O   0  0  0  0  0  0
    8.6399    3.0835    3.4574 C   0  0  0  0  0  0
   11.6076    4.6942   -0.0872 O   0  0  0  0  0  0
   12.2377    4.9317   -1.3476 C   0  0  0  0  0  0
   -1.2038   -0.6834    0.0103 N   0  0  0  0  0  0
    0.2210    3.8756    0.0200 H   0  0  0  0  0  0
    1.9006    3.9154    0.0045 H   0  0  0  0  0  0
    3.5995    3.0835   -0.0156 H   0  0  0  0  0  0
    5.6274   -0.6812   -0.0543 H   0  0  0  0  0  0
    3.5048   -1.8758   -0.0413 H   0  0  0  0  0  0
    5.9984    2.9038   -0.0390 H   0  0  0  0  0  0
    7.2617    0.5310    0.8273 H   0  0  0  0  0  0
    7.2450    0.5400   -0.9525 H   0  0  0  0  0  0
    8.7182    1.9225   -2.1686 H   0  0  0  0  0  0
   10.6359    3.4635   -2.1845 H   0  0  0  0  0  0
   10.2192    4.0288    2.0306 H   0  0  0  0  0  0
    8.0337    2.7834    4.3122 H   0  0  0  0  0  0
    9.6775    2.7974    3.6295 H   0  0  0  0  0  0
    8.5774    4.1641    3.3291 H   0  0  0  0  0  0
   12.6141    3.9906   -1.7486 H   0  0  0  0  0  0
   11.5132    5.3584   -2.0412 H   0  0  0  0  0  0
   13.0663    5.6271   -1.2142 H   0  0  0  0  0  0
   -2.0386   -0.1896    0.0213 H   0  0  0  0  0  0
   -1.2140   -1.6533    0.0052 H   0  0  0  0  0  0
  1  2  1  0  0  0
  1  6  2  0  0  0
  2  3  2  0  0  0
  2 24  1  0  0  0
  3  4  1  0  0  0
  4  5  2  0  0  0
  4 11  1  0  0  0
  5  6  1  0  0  0
  5  8  1  0  0  0
  6  7  1  0  0  0
  7 25  1  0  0  0
  7 26  1  0  0  0
  8  9  2  0  0  0
  8 27  1  0  0  0
  9 10  1  0  0  0
  9 12  1  0  0  0
 10 11  2  0  0  0
 10 28  1  0  0  0
 11 29  1  0  0  0
 12 13  1  0  0  0
 12 30  1  0  0  0
 13 14  1  0  0  0
 13 31  1  0  0  0
 13 32  1  0  0  0
 14 15  1  0  0  0
 14 19  2  0  0  0
 15 16  2  0  0  0
 15 33  1  0  0  0
 16 17  1  0  0  0
 16 34  1  0  0  0
 17 18  2  0  0  0
 17 22  1  0  0  0
 18 19  1  0  0  0
 18 35  1  0  0  0
 19 20  1  0  0  0
 20 21  1  0  0  0
 21 36  1  0  0  0
 21 37  1  0  0  0
 21 38  1  0  0  0
 22 23  1  0  0  0
 23 39  1  0  0  0
 23 40  1  0  0  0
 23 41  1  0  0  0
 24 42  1  0  0  0
 24 43  1  0  0  0
M  END
>  <Activity>
5.92082

>  <set_rl>
1

>  <Min_dist>
999.9

>  <Avg_dist>
999.9

>  <PC_uM>
4.4

>  <TG_uM>
0.17

>  <RL_uM>
1.2

$$$$
15-6
 Wcorina  11170919323D 1   1.00000     0.00000              
CORINA evaluation license 3.46 0067  05.08.2008
 47 49  0  0  0  0  0  0  0  0999 V2000
   -0.0160    1.3262    0.0093 N   0  0  0  0  0  0
    0.0021   -0.0041    0.0020 C   0  0  0  0  0  0
    1.1203   -0.7026   -0.0124 N   0  0  0  0  0  0
    2.3104   -0.0810   -0.0204 C   0  0  0  0  0  0
    2.3389    1.3343   -0.0131 C   0  0  0  0  0  0
    1.1049    2.0319    0.0024 C   0  0  0  0  0  0
    1.0723    3.4106    0.0097 N   0  0  0  0  0  0
    3.5671    2.0040   -0.0208 C   0  0  0  0  0  0
    4.7369    1.2721   -0.0354 C   0  0  0  0  0  0
    4.7015   -0.1253   -0.0425 C   0  0  0  0  0  0
    3.5159   -0.7959   -0.0353 C   0  0  0  0  0  0
    5.9689    1.9343   -0.0436 N   0  0  0  0  0  0
    7.2147    1.1636   -0.0591 C   0  0  0  0  0  0
    8.3893    2.1076   -0.0653 C   0  0  0  0  0  0
    8.9378    2.5334    1.1300 C   0  0  0  0  0  0
   10.0184    3.4024    1.1285 C   0  0  0  0  0  0
   10.5503    3.8449   -0.0768 C   0  0  0  0  0  0
    9.9962    3.4141   -1.2763 C   0  0  0  0  0  0
    8.9190    2.5410   -1.2663 C   0  0  0  0  0  0
   10.5128    3.8446   -2.4584 O   0  0  0  0  0  0
    9.8931    3.3609   -3.6518 C   0  0  0  0  0  0
   11.6105    4.6981   -0.0824 O   0  0  0  0  0  0
   12.9141    4.1129   -0.0970 C   0  0  0  0  0  0
   10.5567    3.8214    2.3050 O   0  0  0  0  0  0
    9.9588    3.3264    3.5049 C   0  0  0  0  0  0
   -1.2038   -0.6834    0.0103 N   0  0  0  0  0  0
    0.2210    3.8756    0.0200 H   0  0  0  0  0  0
    1.9006    3.9154    0.0045 H   0  0  0  0  0  0
    3.5995    3.0835   -0.0156 H   0  0  0  0  0  0
    5.6274   -0.6812   -0.0543 H   0  0  0  0  0  0
    3.5048   -1.8758   -0.0413 H   0  0  0  0  0  0
    5.9984    2.9038   -0.0390 H   0  0  0  0  0  0
    7.2617    0.5310    0.8273 H   0  0  0  0  0  0
    7.2450    0.5400   -0.9525 H   0  0  0  0  0  0
    8.5239    2.1890    2.0662 H   0  0  0  0  0  0
    8.4906    2.2023   -2.1981 H   0  0  0  0  0  0
   10.4007    3.7803   -4.5204 H   0  0  0  0  0  0
    9.9609    2.2734   -3.6813 H   0  0  0  0  0  0
    8.8450    3.6601   -3.6639 H   0  0  0  0  0  0
   13.6664    4.9017   -0.1002 H   0  0  0  0  0  0
   13.0432    3.4912    0.7889 H   0  0  0  0  0  0
   13.0270    3.4996   -0.9910 H   0  0  0  0  0  0
   10.4825    3.7373    4.3680 H   0  0  0  0  0  0
    8.9113    3.6257    3.5390 H   0  0  0  0  0  0
   10.0267    2.2387    3.5227 H   0  0  0  0  0  0
   -2.0386   -0.1896    0.0213 H   0  0  0  0  0  0
   -1.2140   -1.6533    0.0052 H   0  0  0  0  0  0
  1  2  1  0  0  0
  1  6  2  0  0  0
  2  3  2  0  0  0
  2 26  1  0  0  0
  3  4  1  0  0  0
  4  5  2  0  0  0
  4 11  1  0  0  0
  5  6  1  0  0  0
  5  8  1  0  0  0
  6  7  1  0  0  0
  7 27  1  0  0  0
  7 28  1  0  0  0
  8  9  2  0  0  0
  8 29  1  0  0  0
  9 10  1  0  0  0
  9 12  1  0  0  0
 10 11  2  0  0  0
 10 30  1  0  0  0
 11 31  1  0  0  0
 12 13  1  0  0  0
 12 32  1  0  0  0
 13 14  1  0  0  0
 13 33  1  0  0  0
 13 34  1  0  0  0
 14 15  1  0  0  0
 14 19  2  0  0  0
 15 16  2  0  0  0
 15 35  1  0  0  0
 16 17  1  0  0  0
 16 24  1  0  0  0
 17 18  2  0  0  0
 17 22  1  0  0  0
 18 19  1  0  0  0
 18 20  1  0  0  0
 19 36  1  0  0  0
 20 21  1  0  0  0
 21 37  1  0  0  0
 21 38  1  0  0  0
 21 39  1  0  0  0
 22 23  1  0  0  0
 23 40  1  0  0  0
 23 41  1  0  0  0
 23 42  1  0  0  0
 24 25  1  0  0  0
 25 43  1  0  0  0
 25 44  1  0  0  0
 25 45  1  0  0  0
 26 46  1  0  0  0
 26 47  1  0  0  0
M  END
>  <Activity>
6.04576

>  <set_rl>
1

>  <Min_dist>
999.9

>  <Avg_dist>
999.9

>  <PC_uM>
6.8

>  <TG_uM>
0.084

>  <RL_uM>
0.9

$$$$
15-7
 Wcorina  11170919323D 1   1.00000     0.00000              
CORINA evaluation license 3.46 0067  05.08.2008
 47 49  0  0  0  0  0  0  0  0999 V2000
   -0.0160    1.3262    0.0093 N   0  0  0  0  0  0
    0.0021   -0.0041    0.0020 C   0  0  0  0  0  0
    1.1203   -0.7026   -0.0124 N   0  0  0  0  0  0
    2.3104   -0.0810   -0.0204 C   0  0  0  0  0  0
    2.3389    1.3343   -0.0131 C   0  0  0  0  0  0
    1.1049    2.0319    0.0024 C   0  0  0  0  0  0
    1.0723    3.4106    0.0097 N   0  0  0  0  0  0
    3.5671    2.0040   -0.0208 C   0  0  0  0  0  0
    4.7369    1.2721   -0.0354 C   0  0  0  0  0  0
    4.7015   -0.1253   -0.0425 C   0  0  0  0  0  0
    3.5159   -0.7959   -0.0353 C   0  0  0  0  0  0
    5.9689    1.9343   -0.0436 N   0  0  0  0  0  0
    7.2147    1.1636   -0.0591 C   0  0  0  0  0  0
    8.3893    2.1076   -0.0653 C   0  0  0  0  0  0
    9.0467    2.3839   -1.2498 C   0  0  0  0  0  0
   10.1245    3.2489   -1.2608 C   0  0  0  0  0  0
   10.5512    3.8432   -0.0826 C   0  0  0  0  0  0
    9.8932    3.5682    1.1100 C   0  0  0  0  0  0
    8.8058    2.7023    1.1158 C   0  0  0  0  0  0
    8.1548    2.4347    2.2794 O   0  0  0  0  0  0
    8.6306    1.3290    3.0496 C   0  0  0  0  0  0
   10.3088    4.1494    2.2683 O   0  0  0  0  0  0
    9.7198    5.4051    2.6119 C   0  0  0  0  0  0
   11.6124    4.6936   -0.0943 O   0  0  0  0  0  0
   12.2408    4.9295   -1.3559 C   0  0  0  0  0  0
   -1.2038   -0.6834    0.0103 N   0  0  0  0  0  0
    0.2210    3.8756    0.0200 H   0  0  0  0  0  0
    1.9006    3.9154    0.0045 H   0  0  0  0  0  0
    3.5995    3.0835   -0.0156 H   0  0  0  0  0  0
    5.6274   -0.6812   -0.0543 H   0  0  0  0  0  0
    3.5048   -1.8758   -0.0413 H   0  0  0  0  0  0
    5.9984    2.9038   -0.0390 H   0  0  0  0  0  0
    7.2617    0.5310    0.8273 H   0  0  0  0  0  0
    7.2450    0.5400   -0.9525 H   0  0  0  0  0  0
    8.7173    1.9222   -2.1688 H   0  0  0  0  0  0
   10.6354    3.4622   -2.1881 H   0  0  0  0  0  0
    8.5596    0.4165    2.4577 H   0  0  0  0  0  0
    9.6702    1.5012    3.3286 H   0  0  0  0  0  0
    8.0251    1.2260    3.9501 H   0  0  0  0  0  0
    8.6414    5.2845    2.7152 H   0  0  0  0  0  0
   10.1381    5.7568    3.5550 H   0  0  0  0  0  0
    9.9305    6.1320    1.8274 H   0  0  0  0  0  0
   12.6157    3.9878   -1.7569 H   0  0  0  0  0  0
   11.5157    5.3564   -2.0488 H   0  0  0  0  0  0
   13.0703    5.6243   -1.2244 H   0  0  0  0  0  0
   -2.0386   -0.1896    0.0213 H   0  0  0  0  0  0
   -1.2140   -1.6533    0.0052 H   0  0  0  0  0  0
  1  2  1  0  0  0
  1  6  2  0  0  0
  2  3  2  0  0  0
  2 26  1  0  0  0
  3  4  1  0  0  0
  4  5  2  0  0  0
  4 11  1  0  0  0
  5  6  1  0  0  0
  5  8  1  0  0  0
  6  7  1  0  0  0
  7 27  1  0  0  0
  7 28  1  0  0  0
  8  9  2  0  0  0
  8 29  1  0  0  0
  9 10  1  0  0  0
  9 12  1  0  0  0
 10 11  2  0  0  0
 10 30  1  0  0  0
 11 31  1  0  0  0
 12 13  1  0  0  0
 12 32  1  0  0  0
 13 14  1  0  0  0
 13 33  1  0  0  0
 13 34  1  0  0  0
 14 15  1  0  0  0
 14 19  2  0  0  0
 15 16  2  0  0  0
 15 35  1  0  0  0
 16 17  1  0  0  0
 16 36  1  0  0  0
 17 18  2  0  0  0
 17 24  1  0  0  0
 18 19  1  0  0  0
 18 22  1  0  0  0
 19 20  1  0  0  0
 20 21  1  0  0  0
 21 37  1  0  0  0
 21 38  1  0  0  0
 21 39  1  0  0  0
 22 23  1  0  0  0
 23 40  1  0  0  0
 23 41  1  0  0  0
 23 42  1  0  0  0
 24 25  1  0  0  0
 25 43  1  0  0  0
 25 44  1  0  0  0
 25 45  1  0  0  0
 26 46  1  0  0  0
 26 47  1  0  0  0
M  END
>  <Activity>
5.88606

>  <set_rl>
1

>  <Min_dist>
999.9

>  <Avg_dist>
999.9

>  <PC_uM>
4.9

>  <TG_uM>
0.19

>  <RL_uM>
1.3

$$$$
15-10
 Wcorina  11170919323D 1   1.00000     0.00000              
CORINA evaluation license 3.46 0067  05.08.2008
 41 44  0  0  0  0  0  0  0  0999 V2000
   -0.0160    1.3262    0.0093 N   0  0  0  0  0  0
    0.0021   -0.0041    0.0020 C   0  0  0  0  0  0
    1.1203   -0.7026   -0.0124 N   0  0  0  0  0  0
    2.3104   -0.0810   -0.0204 C   0  0  0  0  0  0
    2.3389    1.3343   -0.0131 C   0  0  0  0  0  0
    1.1049    2.0319    0.0024 C   0  0  0  0  0  0
    1.0723    3.4106    0.0097 N   0  0  0  0  0  0
    3.5671    2.0040   -0.0208 C   0  0  0  0  0  0
    4.7369    1.2721   -0.0354 C   0  0  0  0  0  0
    4.7015   -0.1253   -0.0425 C   0  0  0  0  0  0
    3.5159   -0.7959   -0.0353 C   0  0  0  0  0  0
    5.9689    1.9343   -0.0436 N   0  0  0  0  0  0
    7.2147    1.1636   -0.0591 C   0  0  0  0  0  0
    8.3893    2.1076   -0.0653 C   0  0  0  0  0  0
    8.8190    2.7086    1.1303 C   0  0  0  0  0  0
    9.9258    3.5932    1.1045 C   0  0  0  0  0  0
   10.5722    3.8528   -0.1162 C   0  0  0  0  0  0
   10.1280    3.2530   -1.2541 C   0  0  0  0  0  0
    9.0432    2.3783   -1.2278 C   0  0  0  0  0  0
   10.3556    4.1942    2.3000 C   0  0  0  0  0  0
    9.7050    3.9197    3.4634 C   0  0  0  0  0  0
    8.6167    3.0493    3.4889 C   0  0  0  0  0  0
    8.1722    2.4498    2.3509 C   0  0  0  0  0  0
   -1.2038   -0.6834    0.0103 N   0  0  0  0  0  0
    0.2210    3.8756    0.0200 H   0  0  0  0  0  0
    1.9006    3.9154    0.0045 H   0  0  0  0  0  0
    3.5995    3.0835   -0.0156 H   0  0  0  0  0  0
    5.6274   -0.6812   -0.0543 H   0  0  0  0  0  0
    3.5048   -1.8758   -0.0413 H   0  0  0  0  0  0
    5.9984    2.9038   -0.0390 H   0  0  0  0  0  0
    7.2617    0.5310    0.8273 H   0  0  0  0  0  0
    7.2450    0.5400   -0.9525 H   0  0  0  0  0  0
   11.4168    4.5250   -0.1510 H   0  0  0  0  0  0
   10.6262    3.4545   -2.1909 H   0  0  0  0  0  0
    8.7135    1.9120   -2.1445 H   0  0  0  0  0  0
   11.1979    4.8702    2.2955 H   0  0  0  0  0  0
   10.0372    4.3829    4.3807 H   0  0  0  0  0  0
    8.1185    2.8479    4.4257 H   0  0  0  0  0  0
    7.3272    1.7781    2.3857 H   0  0  0  0  0  0
   -2.0386   -0.1896    0.0213 H   0  0  0  0  0  0
   -1.2140   -1.6533    0.0052 H   0  0  0  0  0  0
  1  2  1  0  0  0
  1  6  2  0  0  0
  2  3  2  0  0  0
  2 24  1  0  0  0
  3  4  1  0  0  0
  4  5  2  0  0  0
  4 11  1  0  0  0
  5  6  1  0  0  0
  5  8  1  0  0  0
  6  7  1  0  0  0
  7 25  1  0  0  0
  7 26  1  0  0  0
  8  9  2  0  0  0
  8 27  1  0  0  0
  9 10  1  0  0  0
  9 12  1  0  0  0
 10 11  2  0  0  0
 10 28  1  0  0  0
 11 29  1  0  0  0
 12 13  1  0  0  0
 12 30  1  0  0  0
 13 14  1  0  0  0
 13 31  1  0  0  0
 13 32  1  0  0  0
 14 15  1  0  0  0
 14 19  2  0  0  0
 15 16  2  0  0  0
 15 23  1  0  0  0
 16 17  1  0  0  0
 16 20  1  0  0  0
 17 18  2  0  0  0
 17 33  1  0  0  0
 18 19  1  0  0  0
 18 34  1  0  0  0
 19 35  1  0  0  0
 20 21  2  0  0  0
 20 36  1  0  0  0
 21 22  1  0  0  0
 21 37  1  0  0  0
 22 23  2  0  0  0
 22 38  1  0  0  0
 23 39  1  0  0  0
 24 40  1  0  0  0
 24 41  1  0  0  0
M  END
>  <Activity>
6.72125

>  <set_rl>
1

>  <Min_dist>
999.9

>  <Avg_dist>
999.9

>  <PC_uM>
0.72

>  <TG_uM>
0.099

>  <RL_uM>
0.19

$$$$
15-14
 Wcorina  11170919323D 1   1.00000     0.00000              
CORINA evaluation license 3.46 0067  05.08.2008
 50 52  0  0  0  0  0  0  0  0999 V2000
   -0.0160    1.3262    0.0093 N   0  0  0  0  0  0
    0.0021   -0.0041    0.0020 C   0  0  0  0  0  0
    1.1203   -0.7026   -0.0124 N   0  0  0  0  0  0
    2.3104   -0.0810   -0.0204 C   0  0  0  0  0  0
    2.3389    1.3343   -0.0131 C   0  0  0  0  0  0
    1.1049    2.0319    0.0024 C   0  0  0  0  0  0
    1.0723    3.4106    0.0097 N   0  0  0  0  0  0
    3.5671    2.0040   -0.0208 C   0  0  0  0  0  0
    4.7369    1.2721   -0.0354 C   0  0  0  0  0  0
    4.7015   -0.1253   -0.0425 C   0  0  0  0  0  0
    3.5159   -0.7959   -0.0353 C   0  0  0  0  0  0
    5.9689    1.9343   -0.0436 N   0  0  0  0  0  0
    7.2147    1.1636   -0.0591 C   0  0  0  0  0  0
    7.6286    0.9065   -1.4851 C   0  0  0  0  0  0
    7.3650   -0.3180   -2.0704 C   0  0  0  0  0  0
    7.7425   -0.5588   -3.3779 C   0  0  0  0  0  0
    8.3882    0.4278   -4.1081 C   0  0  0  0  0  0
    8.6549    1.6599   -3.5236 C   0  0  0  0  0  0
    8.2681    1.9002   -2.2103 C   0  0  0  0  0  0
    8.5216    3.1064   -1.6356 O   0  0  0  0  0  0
    9.7702    3.2518   -0.9561 C   0  0  0  0  0  0
    9.2883    2.6306   -4.2368 O   0  0  0  0  0  0
    8.4648    3.5295   -4.9824 C   0  0  0  0  0  0
    8.7600    0.1896   -5.3944 O   0  0  0  0  0  0
    8.4541   -1.0994   -5.9300 C   0  0  0  0  0  0
    6.0135    3.3986   -0.0366 C   0  0  0  0  0  0
   -1.2038   -0.6834    0.0103 N   0  0  0  0  0  0
    0.2210    3.8756    0.0200 H   0  0  0  0  0  0
    1.9006    3.9154    0.0045 H   0  0  0  0  0  0
    3.5995    3.0835   -0.0156 H   0  0  0  0  0  0
    5.6274   -0.6812   -0.0543 H   0  0  0  0  0  0
    3.5048   -1.8758   -0.0413 H   0  0  0  0  0  0
    7.9967    1.7267    0.4503 H   0  0  0  0  0  0
    7.0602    0.2130    0.4515 H   0  0  0  0  0  0
    6.8630   -1.0886   -1.5042 H   0  0  0  0  0  0
    7.5348   -1.5167   -3.8315 H   0  0  0  0  0  0
    9.8451    4.2585   -0.5450 H   0  0  0  0  0  0
    9.8307    2.5236   -0.1473 H   0  0  0  0  0  0
   10.5874    3.0842   -1.6578 H   0  0  0  0  0  0
    7.8787    2.9672   -5.7094 H   0  0  0  0  0  0
    7.7937    4.0556   -4.3035 H   0  0  0  0  0  0
    9.0939    4.2514   -5.5033 H   0  0  0  0  0  0
    8.8038   -1.1569   -6.9608 H   0  0  0  0  0  0
    8.9491   -1.8670   -5.3351 H   0  0  0  0  0  0
    7.3760   -1.2577   -5.9028 H   0  0  0  0  0  0
    6.0341    3.7566    0.9927 H   0  0  0  0  0  0
    6.9092    3.7373   -0.5571 H   0  0  0  0  0  0
    5.1302    3.7914   -0.5402 H   0  0  0  0  0  0
   -2.0386   -0.1896    0.0213 H   0  0  0  0  0  0
   -1.2140   -1.6533    0.0052 H   0  0  0  0  0  0
  1  2  1  0  0  0
  1  6  2  0  0  0
  2  3  2  0  0  0
  2 27  1  0  0  0
  3  4  1  0  0  0
  4  5  2  0  0  0
  4 11  1  0  0  0
  5  6  1  0  0  0
  5  8  1  0  0  0
  6  7  1  0  0  0
  7 28  1  0  0  0
  7 29  1  0  0  0
  8  9  2  0  0  0
  8 30  1  0  0  0
  9 10  1  0  0  0
  9 12  1  0  0  0
 10 11  2  0  0  0
 10 31  1  0  0  0
 11 32  1  0  0  0
 12 13  1  0  0  0
 12 26  1  0  0  0
 13 14  1  0  0  0
 13 33  1  0  0  0
 13 34  1  0  0  0
 14 15  1  0  0  0
 14 19  2  0  0  0
 15 16  2  0  0  0
 15 35  1  0  0  0
 16 17  1  0  0  0
 16 36  1  0  0  0
 17 18  2  0  0  0
 17 24  1  0  0  0
 18 19  1  0  0  0
 18 22  1  0  0  0
 19 20  1  0  0  0
 20 21  1  0  0  0
 21 37  1  0  0  0
 21 38  1  0  0  0
 21 39  1  0  0  0
 22 23  1  0  0  0
 23 40  1  0  0  0
 23 41  1  0  0  0
 23 42  1  0  0  0
 24 25  1  0  0  0
 25 43  1  0  0  0
 25 44  1  0  0  0
 25 45  1  0  0  0
 26 46  1  0  0  0
 26 47  1  0  0  0
 26 48  1  0  0  0
 27 49  1  0  0  0
 27 50  1  0  0  0
M  END
>  <Activity>
7.72125

>  <set_rl>
1

>  <Min_dist>
999.9

>  <Avg_dist>
999.9

>  <PC_uM>
0.052

>  <TG_uM>
0.017

>  <RL_uM>
0.019

$$$$
10-4A
 Wcorina  11170919323D 1   1.00000     0.00000              
CORINA evaluation license 3.46 0067  05.08.2008
 44 46  0  0  0  0  0  0  0  0999 V2000
   -0.0160    1.3261    0.0093 N   0  0  0  0  0  0
    0.0021   -0.0041    0.0020 C   0  0  0  0  0  0
    1.1210   -0.7028   -0.0124 N   0  0  0  0  0  0
    2.3097   -0.0811   -0.0204 C   0  0  0  0  0  0
    2.3388    1.3344   -0.0131 C   0  0  0  0  0  0
    1.1049    2.0321    0.0024 C   0  0  0  0  0  0
    1.0723    3.4101    0.0097 N   0  0  0  0  0  0
    3.5682    2.0019   -0.0212 C   0  0  0  0  0  0
    4.7253    1.2796   -0.0361 C   0  0  0  0  0  0
    4.6990   -0.1119   -0.0433 C   0  0  0  0  0  0
    3.5174   -0.7921   -0.0353 C   0  0  0  0  0  0
    6.0500    1.9981   -0.0454 C   0  0  0  0  0  0
    6.4888    2.2220    1.3205 O   0  0  0  0  0  0
    7.6648    2.8580    1.4889 C   0  0  0  0  0  0
    8.3060    3.2157    0.5207 O   0  0  0  0  0  0
    8.1732    3.1197    2.8474 C   0  0  0  0  0  0
    9.3962    3.7810    3.0267 C   0  0  0  0  0  0
    9.8670    4.0237    4.3079 C   0  0  0  0  0  0
    9.1344    3.6157    5.4049 C   0  0  0  0  0  0
    7.9216    2.9597    5.2345 C   0  0  0  0  0  0
    7.4359    2.7150    3.9634 C   0  0  0  0  0  0
    7.2075    2.5618    6.3213 O   0  0  0  0  0  0
    7.7646    2.8512    7.6050 C   0  0  0  0  0  0
   10.1174    4.1822    1.9493 O   0  0  0  0  0  0
   11.3538    4.8501    2.2084 C   0  0  0  0  0  0
   -1.2029   -0.6830    0.0103 N   0  0  0  0  0  0
    0.2210    3.8750    0.0200 H   0  0  0  0  0  0
    1.9005    3.9149    0.0045 H   0  0  0  0  0  0
    3.6009    3.0814   -0.0161 H   0  0  0  0  0  0
    5.6287   -0.6613   -0.0551 H   0  0  0  0  0  0
    3.5121   -1.8720   -0.0410 H   0  0  0  0  0  0
    6.7886    1.3916   -0.5695 H   0  0  0  0  0  0
    5.9401    2.9562   -0.5533 H   0  0  0  0  0  0
   10.8091    4.5327    4.4483 H   0  0  0  0  0  0
    9.5063    3.8071    6.4006 H   0  0  0  0  0  0
    6.4908    2.2089    3.8332 H   0  0  0  0  0  0
    8.7353    2.3642    7.6980 H   0  0  0  0  0  0
    7.8868    3.9289    7.7135 H   0  0  0  0  0  0
    7.0964    2.4813    8.3828 H   0  0  0  0  0  0
   11.8280    5.1161    1.2637 H   0  0  0  0  0  0
   11.1641    5.7542    2.7869 H   0  0  0  0  0  0
   12.0124    4.1895    2.7722 H   0  0  0  0  0  0
   -2.0377   -0.1892    0.0213 H   0  0  0  0  0  0
   -1.2131   -1.6529    0.0052 H   0  0  0  0  0  0
  1  2  1  0  0  0
  1  6  2  0  0  0
  2  3  2  0  0  0
  2 26  1  0  0  0
  3  4  1  0  0  0
  4  5  2  0  0  0
  4 11  1  0  0  0
  5  6  1  0  0  0
  5  8  1  0  0  0
  6  7  1  0  0  0
  7 27  1  0  0  0
  7 28  1  0  0  0
  8  9  2  0  0  0
  8 29  1  0  0  0
  9 10  1  0  0  0
  9 12  1  0  0  0
 10 11  2  0  0  0
 10 30  1  0  0  0
 11 31  1  0  0  0
 12 13  1  0  0  0
 12 32  1  0  0  0
 12 33  1  0  0  0
 13 14  1  0  0  0
 14 15  2  0  0  0
 14 16  1  0  0  0
 16 17  1  0  0  0
 16 21  2  0  0  0
 17 18  2  0  0  0
 17 24  1  0  0  0
 18 19  1  0  0  0
 18 34  1  0  0  0
 19 20  2  0  0  0
 19 35  1  0  0  0
 20 21  1  0  0  0
 20 22  1  0  0  0
 21 36  1  0  0  0
 22 23  1  0  0  0
 23 37  1  0  0  0
 23 38  1  0  0  0
 23 39  1  0  0  0
 24 25  1  0  0  0
 25 40  1  0  0  0
 25 41  1  0  0  0
 25 42  1  0  0  0
 26 43  1  0  0  0
 26 44  1  0  0  0
M  END
>  <Activity>
6.37675

>  <set_rl>
1

>  <Min_dist>
999.9

>  <Avg_dist>
999.9

>  <PC_uM>
2.4

>  <TG_uM>
0.22

>  <RL_uM>
0.42

$$$$
10-6A
 Wcorina  11170919323D 1   1.00000     0.00000              
CORINA evaluation license 3.46 0067  05.08.2008
 44 46  0  0  0  0  0  0  0  0999 V2000
   -0.0160    1.3261    0.0093 N   0  0  0  0  0  0
    0.0021   -0.0041    0.0020 C   0  0  0  0  0  0
    1.1210   -0.7028   -0.0124 N   0  0  0  0  0  0
    2.3097   -0.0811   -0.0204 C   0  0  0  0  0  0
    2.3388    1.3344   -0.0131 C   0  0  0  0  0  0
    1.1049    2.0321    0.0024 C   0  0  0  0  0  0
    1.0723    3.4101    0.0097 N   0  0  0  0  0  0
    3.5682    2.0019   -0.0212 C   0  0  0  0  0  0
    4.7253    1.2796   -0.0361 C   0  0  0  0  0  0
    4.6990   -0.1119   -0.0433 C   0  0  0  0  0  0
    3.5174   -0.7921   -0.0353 C   0  0  0  0  0  0
    6.0500    1.9981   -0.0454 C   0  0  0  0  0  0
    6.4888    2.2220    1.3205 O   0  0  0  0  0  0
    7.6644    2.8578    1.4888 C   0  0  0  0  0  0
    8.3054    3.2154    0.5210 O   0  0  0  0  0  0
    8.1741    3.1201    2.8506 C   0  0  0  0  0  0
    9.3918    3.7787    3.0273 C   0  0  0  0  0  0
    9.8657    4.0225    4.3057 C   0  0  0  0  0  0
    9.1319    3.6131    5.4096 C   0  0  0  0  0  0
    7.9209    2.9581    5.2387 C   0  0  0  0  0  0
    7.4364    2.7152    3.9641 C   0  0  0  0  0  0
    7.2063    2.5588    6.3236 O   0  0  0  0  0  0
    7.7622    2.8465    7.6082 C   0  0  0  0  0  0
   11.0517    4.6633    4.4789 O   0  0  0  0  0  0
   11.4804    4.8819    5.8244 C   0  0  0  0  0  0
   -1.2029   -0.6830    0.0103 N   0  0  0  0  0  0
    0.2210    3.8750    0.0200 H   0  0  0  0  0  0
    1.9005    3.9149    0.0045 H   0  0  0  0  0  0
    3.6009    3.0814   -0.0161 H   0  0  0  0  0  0
    5.6287   -0.6613   -0.0551 H   0  0  0  0  0  0
    3.5121   -1.8720   -0.0410 H   0  0  0  0  0  0
    6.7886    1.3916   -0.5695 H   0  0  0  0  0  0
    5.9401    2.9562   -0.5533 H   0  0  0  0  0  0
    9.9639    4.0974    2.1685 H   0  0  0  0  0  0
    9.5046    3.8045    6.4050 H   0  0  0  0  0  0
    6.4913    2.2096    3.8320 H   0  0  0  0  0  0
    8.7329    2.3594    7.7014 H   0  0  0  0  0  0
    7.8843    3.9240    7.7183 H   0  0  0  0  0  0
    7.0935    2.4754    8.3849 H   0  0  0  0  0  0
   10.7408    5.4881    6.3475 H   0  0  0  0  0  0
   11.5888    3.9232    6.3316 H   0  0  0  0  0  0
   12.4388    5.4012    5.8206 H   0  0  0  0  0  0
   -2.0377   -0.1892    0.0213 H   0  0  0  0  0  0
   -1.2131   -1.6529    0.0052 H   0  0  0  0  0  0
  1  2  1  0  0  0
  1  6  2  0  0  0
  2  3  2  0  0  0
  2 26  1  0  0  0
  3  4  1  0  0  0
  4  5  2  0  0  0
  4 11  1  0  0  0
  5  6  1  0  0  0
  5  8  1  0  0  0
  6  7  1  0  0  0
  7 27  1  0  0  0
  7 28  1  0  0  0
  8  9  2  0  0  0
  8 29  1  0  0  0
  9 10  1  0  0  0
  9 12  1  0  0  0
 10 11  2  0  0  0
 10 30  1  0  0  0
 11 31  1  0  0  0
 12 13  1  0  0  0
 12 32  1  0  0  0
 12 33  1  0  0  0
 13 14  1  0  0  0
 14 15  2  0  0  0
 14 16  1  0  0  0
 16 17  1  0  0  0
 16 21  2  0  0  0
 17 18  2  0  0  0
 17 34  1  0  0  0
 18 19  1  0  0  0
 18 24  1  0  0  0
 19 20  2  0  0  0
 19 35  1  0  0  0
 20 21  1  0  0  0
 20 22  1  0  0  0
 21 36  1  0  0  0
 22 23  1  0  0  0
 23 37  1  0  0  0
 23 38  1  0  0  0
 23 39  1  0  0  0
 24 25  1  0  0  0
 25 40  1  0  0  0
 25 41  1  0  0  0
 25 42  1  0  0  0
 26 43  1  0  0  0
 26 44  1  0  0  0
M  END
>  <Activity>
6.45593

>  <set_rl>
1

>  <Min_dist>
999.9

>  <Avg_dist>
999.9

>  <PC_uM>
0.46

>  <TG_uM>
0.15

>  <RL_uM>
0.35

$$$$
13-10
 Wcorina  11170919323D 1   1.00000     0.00000              
CORINA evaluation license 3.46 0067  05.08.2008
 50 52  0  0  0  0  0  0  0  0999 V2000
    0.0128    1.3253    0.2526 N   0  0  0  0  0  0
    0.0312   -0.0048    0.2481 C   0  0  0  0  0  0
    1.1226   -0.7027   -0.0016 N   0  0  0  0  0  0
    2.2809   -0.0800   -0.2668 C   0  0  0  0  0  0
    2.3079    1.3357   -0.2732 C   0  0  0  0  0  0
    1.1051    2.0321    0.0024 C   0  0  0  0  0  0
    1.0724    3.4101    0.0106 N   0  0  0  0  0  0
    3.5067    2.0046   -0.5482 C   0  0  0  0  0  0
    4.6360    1.2817   -0.8070 C   0  0  0  0  0  0
    4.6103   -0.1093   -0.8008 C   0  0  0  0  0  0
    3.4587   -0.7899   -0.5357 C   0  0  0  0  0  0
    5.9271    2.0002   -1.1036 C   0  0  0  0  0  0
    6.5382    2.4445    0.1515 N   0  0  0  0  0  0
    7.4317    1.6079    0.8292 C   0  0  0  0  0  0
    8.0106    2.0294    2.0185 C   0  0  0  0  0  0
    8.8959    1.2010    2.6905 C   0  0  0  0  0  0
    9.2039   -0.0515    2.1734 C   0  0  0  0  0  0
    8.6241   -0.4727    0.9828 C   0  0  0  0  0  0
    7.7345    0.3545    0.3148 C   0  0  0  0  0  0
    8.9249   -1.6982    0.4759 O   0  0  0  0  0  0
    8.2922   -2.0658   -0.7515 C   0  0  0  0  0  0
   10.0740   -0.8657    2.8328 O   0  0  0  0  0  0
    9.5196   -1.7610    3.7988 C   0  0  0  0  0  0
    9.4632    1.6141    3.8554 O   0  0  0  0  0  0
    9.1016    2.9133    4.3281 C   0  0  0  0  0  0
    6.2137    3.7649    0.6970 C   0  0  0  0  0  0
    3.5569    3.7399   -0.5607 Cl  0  0  0  0  0  0
   -1.1429   -0.6846    0.5170 N   0  0  0  0  0  0
    0.5859    3.8796    0.7061 H   0  0  0  0  0  0
    1.5358    3.9104   -0.6793 H   0  0  0  0  0  0
    5.5167   -0.6586   -1.0085 H   0  0  0  0  0  0
    3.4542   -1.8699   -0.5346 H   0  0  0  0  0  0
    6.6086    1.3244   -1.6203 H   0  0  0  0  0  0
    5.7247    2.8651   -1.7354 H   0  0  0  0  0  0
    7.7714    3.0030    2.4202 H   0  0  0  0  0  0
    7.2801    0.0254   -0.6080 H   0  0  0  0  0  0
    7.2104   -2.0615   -0.6182 H   0  0  0  0  0  0
    8.5653   -1.3523   -1.5289 H   0  0  0  0  0  0
    8.6183   -3.0640   -1.0437 H   0  0  0  0  0  0
    9.0093   -1.1888    4.5736 H   0  0  0  0  0  0
    8.8079   -2.4269    3.3107 H   0  0  0  0  0  0
   10.3186   -2.3501    4.2489 H   0  0  0  0  0  0
    9.3802    3.6608    3.5854 H   0  0  0  0  0  0
    8.0254    2.9520    4.4966 H   0  0  0  0  0  0
    9.6233    3.1180    5.2630 H   0  0  0  0  0  0
    5.3510    3.6829    1.3582 H   0  0  0  0  0  0
    7.0669    4.1457    1.2585 H   0  0  0  0  0  0
    5.9819    4.4485   -0.1197 H   0  0  0  0  0  0
   -1.9570   -0.1915    0.7036 H   0  0  0  0  0  0
   -1.1521   -1.6546    0.5190 H   0  0  0  0  0  0
  1  2  1  0  0  0
  1  6  2  0  0  0
  2  3  2  0  0  0
  2 28  1  0  0  0
  3  4  1  0  0  0
  4  5  2  0  0  0
  4 11  1  0  0  0
  5  6  1  0  0  0
  5  8  1  0  0  0
  6  7  1  0  0  0
  7 29  1  0  0  0
  7 30  1  0  0  0
  8  9  2  0  0  0
  8 27  1  0  0  0
  9 10  1  0  0  0
  9 12  1  0  0  0
 10 11  2  0  0  0
 10 31  1  0  0  0
 11 32  1  0  0  0
 12 13  1  0  0  0
 12 33  1  0  0  0
 12 34  1  0  0  0
 13 14  1  0  0  0
 13 26  1  0  0  0
 14 15  1  0  0  0
 14 19  2  0  0  0
 15 16  2  0  0  0
 15 35  1  0  0  0
 16 17  1  0  0  0
 16 24  1  0  0  0
 17 18  2  0  0  0
 17 22  1  0  0  0
 18 19  1  0  0  0
 18 20  1  0  0  0
 19 36  1  0  0  0
 20 21  1  0  0  0
 21 37  1  0  0  0
 21 38  1  0  0  0
 21 39  1  0  0  0
 22 23  1  0  0  0
 23 40  1  0  0  0
 23 41  1  0  0  0
 23 42  1  0  0  0
 24 25  1  0  0  0
 25 43  1  0  0  0
 25 44  1  0  0  0
 25 45  1  0  0  0
 26 46  1  0  0  0
 26 47  1  0  0  0
 26 48  1  0  0  0
 28 49  1  0  0  0
 28 50  1  0  0  0
M  END
>  <Activity>
7.92082

>  <set_rl>
1

>  <Min_dist>
999.9

>  <Avg_dist>
999.9

>  <PC_uM>
0.012

>  <TG_uM>
0.0064

>  <RL_uM>
0.012

$$$$
10-11A
 Wcorina  11170919323D 1   1.00000     0.00000              
CORINA evaluation license 3.46 0067  05.08.2008
 35 37  0  0  0  0  0  0  0  0999 V2000
   -0.0160    1.3261    0.0093 N   0  0  0  0  0  0
    0.0021   -0.0041    0.0020 C   0  0  0  0  0  0
    1.1210   -0.7028   -0.0124 N   0  0  0  0  0  0
    2.3097   -0.0811   -0.0204 C   0  0  0  0  0  0
    2.3388    1.3344   -0.0131 C   0  0  0  0  0  0
    1.1049    2.0321    0.0024 C   0  0  0  0  0  0
    1.0723    3.4101    0.0097 N   0  0  0  0  0  0
    3.5682    2.0019   -0.0212 C   0  0  0  0  0  0
    4.7253    1.2796   -0.0361 C   0  0  0  0  0  0
    4.6990   -0.1119   -0.0433 C   0  0  0  0  0  0
    3.5174   -0.7921   -0.0353 C   0  0  0  0  0  0
    6.0500    1.9981   -0.0454 C   0  0  0  0  0  0
    6.4927    2.2240    1.3328 N   0  0  0  0  0  0
    7.7023    2.8774    1.5795 C   0  0  0  0  0  0
    8.1235    3.0923    2.8857 C   0  0  0  0  0  0
    9.3202    3.7383    3.1261 C   0  0  0  0  0  0
   10.0989    4.1709    2.0684 C   0  0  0  0  0  0
    9.6826    3.9586    0.7669 C   0  0  0  0  0  0
    8.4894    3.3086    0.5193 C   0  0  0  0  0  0
   -1.2029   -0.6830    0.0103 N   0  0  0  0  0  0
    0.2210    3.8750    0.0200 H   0  0  0  0  0  0
    1.9005    3.9149    0.0045 H   0  0  0  0  0  0
    3.6009    3.0814   -0.0161 H   0  0  0  0  0  0
    5.6287   -0.6613   -0.0551 H   0  0  0  0  0  0
    3.5121   -1.8720   -0.0410 H   0  0  0  0  0  0
    6.7886    1.3916   -0.5695 H   0  0  0  0  0  0
    5.9401    2.9562   -0.5533 H   0  0  0  0  0  0
    5.9458    1.9197    2.0739 H   0  0  0  0  0  0
    7.5156    2.7550    3.7122 H   0  0  0  0  0  0
    9.6482    3.9061    4.1413 H   0  0  0  0  0  0
   11.0342    4.6761    2.2592 H   0  0  0  0  0  0
   10.2931    4.2977   -0.0569 H   0  0  0  0  0  0
    8.1670    3.1391   -0.4974 H   0  0  0  0  0  0
   -2.0377   -0.1892    0.0213 H   0  0  0  0  0  0
   -1.2131   -1.6529    0.0052 H   0  0  0  0  0  0
  1  2  1  0  0  0
  1  6  2  0  0  0
  2  3  2  0  0  0
  2 20  1  0  0  0
  3  4  1  0  0  0
  4  5  2  0  0  0
  4 11  1  0  0  0
  5  6  1  0  0  0
  5  8  1  0  0  0
  6  7  1  0  0  0
  7 21  1  0  0  0
  7 22  1  0  0  0
  8  9  2  0  0  0
  8 23  1  0  0  0
  9 10  1  0  0  0
  9 12  1  0  0  0
 10 11  2  0  0  0
 10 24  1  0  0  0
 11 25  1  0  0  0
 12 13  1  0  0  0
 12 26  1  0  0  0
 12 27  1  0  0  0
 13 14  1  0  0  0
 13 28  1  0  0  0
 14 15  1  0  0  0
 14 19  2  0  0  0
 15 16  2  0  0  0
 15 29  1  0  0  0
 16 17  1  0  0  0
 16 30  1  0  0  0
 17 18  2  0  0  0
 17 31  1  0  0  0
 18 19  1  0  0  0
 18 32  1  0  0  0
 19 33  1  0  0  0
 20 34  1  0  0  0
 20 35  1  0  0  0
M  END
>  <Activity>
6.35655

>  <set_rl>
1

>  <Min_dist>
999.9

>  <Avg_dist>
999.9

>  <PC_uM>
0.98

>  <TG_uM>
0.1

>  <RL_uM>
0.44

$$$$
13-17
 Wcorina  11170919323D 1   1.00000     0.00000              
CORINA evaluation license 3.46 0067  05.08.2008
 50 52  0  0  0  0  0  0  0  0999 V2000
    0.0123    1.3256    0.2510 N   0  0  0  0  0  0
    0.0307   -0.0048    0.2465 C   0  0  0  0  0  0
    1.1216   -0.7026   -0.0019 N   0  0  0  0  0  0
    2.2817   -0.0801   -0.2658 C   0  0  0  0  0  0
    2.3084    1.3355   -0.2716 C   0  0  0  0  0  0
    1.1050    2.0320    0.0024 C   0  0  0  0  0  0
    1.0723    3.4107    0.0101 N   0  0  0  0  0  0
    3.5065    2.0064   -0.5431 C   0  0  0  0  0  0
    4.6486    1.2740   -0.8022 C   0  0  0  0  0  0
    4.6142   -0.1225   -0.7946 C   0  0  0  0  0  0
    3.4575   -0.7938   -0.5330 C   0  0  0  0  0  0
    5.8509    1.9369   -1.0751 N   0  0  0  0  0  0
    6.8826    1.5824   -0.0913 C   0  0  0  0  0  0
    8.0741    2.4888   -0.2641 C   0  0  0  0  0  0
    8.1424    3.6786    0.4361 C   0  0  0  0  0  0
    9.2368    4.5156    0.2795 C   0  0  0  0  0  0
   10.2661    4.1565   -0.5825 C   0  0  0  0  0  0
   10.1939    2.9591   -1.2843 C   0  0  0  0  0  0
    9.0985    2.1253   -1.1182 C   0  0  0  0  0  0
   11.1984    2.6035   -2.1294 O   0  0  0  0  0  0
   11.0572    1.3592   -2.8176 C   0  0  0  0  0  0
   11.3417    4.9755   -0.7393 O   0  0  0  0  0  0
   12.4475    4.7701    0.1423 C   0  0  0  0  0  0
    9.3026    5.6865    0.9681 O   0  0  0  0  0  0
    8.2087    5.9913    1.8356 C   0  0  0  0  0  0
    6.3085    1.6556   -2.4424 C   0  0  0  0  0  0
    3.5564    3.7416   -0.5547 Cl  0  0  0  0  0  0
   -1.1446   -0.6848    0.5143 N   0  0  0  0  0  0
    0.5856    3.8804    0.7054 H   0  0  0  0  0  0
    1.5359    3.9107   -0.6798 H   0  0  0  0  0  0
    5.5172   -0.6783   -0.9998 H   0  0  0  0  0  0
    3.4472   -1.8737   -0.5310 H   0  0  0  0  0  0
    6.4804    1.6990    0.9151 H   0  0  0  0  0  0
    7.1886    0.5472   -0.2426 H   0  0  0  0  0  0
    7.3421    3.9569    1.1057 H   0  0  0  0  0  0
    9.0436    1.1926   -1.6598 H   0  0  0  0  0  0
   11.9249    1.1971   -3.4571 H   0  0  0  0  0  0
   10.9841    0.5489   -2.0922 H   0  0  0  0  0  0
   10.1548    1.3823   -3.4286 H   0  0  0  0  0  0
   12.1212    4.9093    1.1729 H   0  0  0  0  0  0
   12.8297    3.7571    0.0158 H   0  0  0  0  0  0
   13.2350    5.4871   -0.0895 H   0  0  0  0  0  0
    7.2881    6.0446    1.2545 H   0  0  0  0  0  0
    8.1165    5.2116    2.5917 H   0  0  0  0  0  0
    8.3872    6.9501    2.3224 H   0  0  0  0  0  0
    5.5547    1.9918   -3.1542 H   0  0  0  0  0  0
    7.2443    2.1828   -2.6280 H   0  0  0  0  0  0
    6.4662    0.5834   -2.5594 H   0  0  0  0  0  0
   -1.9588   -0.1915    0.7001 H   0  0  0  0  0  0
   -1.1540   -1.6548    0.5163 H   0  0  0  0  0  0
  1  2  1  0  0  0
  1  6  2  0  0  0
  2  3  2  0  0  0
  2 28  1  0  0  0
  3  4  1  0  0  0
  4  5  2  0  0  0
  4 11  1  0  0  0
  5  6  1  0  0  0
  5  8  1  0  0  0
  6  7  1  0  0  0
  7 29  1  0  0  0
  7 30  1  0  0  0
  8  9  2  0  0  0
  8 27  1  0  0  0
  9 10  1  0  0  0
  9 12  1  0  0  0
 10 11  2  0  0  0
 10 31  1  0  0  0
 11 32  1  0  0  0
 12 13  1  0  0  0
 12 26  1  0  0  0
 13 14  1  0  0  0
 13 33  1  0  0  0
 13 34  1  0  0  0
 14 15  1  0  0  0
 14 19  2  0  0  0
 15 16  2  0  0  0
 15 35  1  0  0  0
 16 17  1  0  0  0
 16 24  1  0  0  0
 17 18  2  0  0  0
 17 22  1  0  0  0
 18 19  1  0  0  0
 18 20  1  0  0  0
 19 36  1  0  0  0
 20 21  1  0  0  0
 21 37  1  0  0  0
 21 38  1  0  0  0
 21 39  1  0  0  0
 22 23  1  0  0  0
 23 40  1  0  0  0
 23 41  1  0  0  0
 23 42  1  0  0  0
 24 25  1  0  0  0
 25 43  1  0  0  0
 25 44  1  0  0  0
 25 45  1  0  0  0
 26 46  1  0  0  0
 26 47  1  0  0  0
 26 48  1  0  0  0
 28 49  1  0  0  0
 28 50  1  0  0  0
M  END
>  <Activity>
7.42022

>  <set_rl>
1

>  <Min_dist>
999.9

>  <Avg_dist>
999.9

>  <PC_uM>
0.17

>  <TG_uM>
0.016

>  <RL_uM>
0.038

$$$$
15-4
 Wcorina  11170919323D 1   1.00000     0.00000              
CORINA evaluation license 3.46 0067  05.08.2008
 43 45  0  0  0  0  0  0  0  0999 V2000
   -0.0160    1.3262    0.0093 N   0  0  0  0  0  0
    0.0021   -0.0041    0.0020 C   0  0  0  0  0  0
    1.1203   -0.7026   -0.0124 N   0  0  0  0  0  0
    2.3104   -0.0810   -0.0204 C   0  0  0  0  0  0
    2.3389    1.3343   -0.0131 C   0  0  0  0  0  0
    1.1049    2.0319    0.0024 C   0  0  0  0  0  0
    1.0723    3.4106    0.0097 N   0  0  0  0  0  0
    3.5671    2.0040   -0.0208 C   0  0  0  0  0  0
    4.7369    1.2721   -0.0354 C   0  0  0  0  0  0
    4.7015   -0.1253   -0.0425 C   0  0  0  0  0  0
    3.5159   -0.7959   -0.0353 C   0  0  0  0  0  0
    5.9689    1.9343   -0.0436 N   0  0  0  0  0  0
    7.2147    1.1636   -0.0591 C   0  0  0  0  0  0
    8.3893    2.1076   -0.0653 C   0  0  0  0  0  0
    8.9382    2.5337    1.1291 C   0  0  0  0  0  0
   10.0196    3.4033    1.1260 C   0  0  0  0  0  0
   10.5496    3.8443   -0.0768 C   0  0  0  0  0  0
    9.9974    3.4150   -1.2738 C   0  0  0  0  0  0
    8.9193    2.5413   -1.2654 C   0  0  0  0  0  0
   10.5145    3.8459   -2.4544 O   0  0  0  0  0  0
   11.6270    4.7403   -2.3875 C   0  0  0  0  0  0
   10.5583    3.8227    2.3010 O   0  0  0  0  0  0
   11.6698    4.7174    2.2223 C   0  0  0  0  0  0
   -1.2038   -0.6834    0.0103 N   0  0  0  0  0  0
    0.2210    3.8756    0.0200 H   0  0  0  0  0  0
    1.9006    3.9154    0.0045 H   0  0  0  0  0  0
    3.5995    3.0835   -0.0156 H   0  0  0  0  0  0
    5.6274   -0.6812   -0.0543 H   0  0  0  0  0  0
    3.5048   -1.8758   -0.0413 H   0  0  0  0  0  0
    5.9984    2.9038   -0.0390 H   0  0  0  0  0  0
    7.2617    0.5310    0.8273 H   0  0  0  0  0  0
    7.2450    0.5400   -0.9525 H   0  0  0  0  0  0
    8.5249    2.1899    2.0658 H   0  0  0  0  0  0
   11.3909    4.5214   -0.0812 H   0  0  0  0  0  0
    8.4914    2.2034   -2.1977 H   0  0  0  0  0  0
   11.9410    5.0056   -3.3970 H   0  0  0  0  0  0
   11.3363    5.6420   -1.8486 H   0  0  0  0  0  0
   12.4522    4.2554   -1.8660 H   0  0  0  0  0  0
   12.4851    4.2373    1.6811 H   0  0  0  0  0  0
   11.3697    5.6244    1.6975 H   0  0  0  0  0  0
   12.0024    4.9730    3.2284 H   0  0  0  0  0  0
   -2.0386   -0.1896    0.0213 H   0  0  0  0  0  0
   -1.2140   -1.6533    0.0052 H   0  0  0  0  0  0
  1  2  1  0  0  0
  1  6  2  0  0  0
  2  3  2  0  0  0
  2 24  1  0  0  0
  3  4  1  0  0  0
  4  5  2  0  0  0
  4 11  1  0  0  0
  5  6  1  0  0  0
  5  8  1  0  0  0
  6  7  1  0  0  0
  7 25  1  0  0  0
  7 26  1  0  0  0
  8  9  2  0  0  0
  8 27  1  0  0  0
  9 10  1  0  0  0
  9 12  1  0  0  0
 10 11  2  0  0  0
 10 28  1  0  0  0
 11 29  1  0  0  0
 12 13  1  0  0  0
 12 30  1  0  0  0
 13 14  1  0  0  0
 13 31  1  0  0  0
 13 32  1  0  0  0
 14 15  1  0  0  0
 14 19  2  0  0  0
 15 16  2  0  0  0
 15 33  1  0  0  0
 16 17  1  0  0  0
 16 22  1  0  0  0
 17 18  2  0  0  0
 17 34  1  0  0  0
 18 19  1  0  0  0
 18 20  1  0  0  0
 19 35  1  0  0  0
 20 21  1  0  0  0
 21 36  1  0  0  0
 21 37  1  0  0  0
 21 38  1  0  0  0
 22 23  1  0  0  0
 23 39  1  0  0  0
 23 40  1  0  0  0
 23 41  1  0  0  0
 24 42  1  0  0  0
 24 43  1  0  0  0
M  END
>  <Activity>
6.07572

>  <set_rl>
1

>  <Min_dist>
999.9

>  <Avg_dist>
999.9

>  <PC_uM>
2.2

>  <TG_uM>
0.12

>  <RL_uM>
0.84

$$$$
15-13
 Wcorina  11170919323D 1   1.00000     0.00000              
CORINA evaluation license 3.46 0067  05.08.2008
 46 48  0  0  0  0  0  0  0  0999 V2000
   -0.0160    1.3262    0.0093 N   0  0  0  0  0  0
    0.0021   -0.0041    0.0020 C   0  0  0  0  0  0
    1.1203   -0.7026   -0.0124 N   0  0  0  0  0  0
    2.3104   -0.0810   -0.0204 C   0  0  0  0  0  0
    2.3389    1.3343   -0.0131 C   0  0  0  0  0  0
    1.1049    2.0319    0.0024 C   0  0  0  0  0  0
    1.0723    3.4106    0.0097 N   0  0  0  0  0  0
    3.5671    2.0040   -0.0208 C   0  0  0  0  0  0
    4.7369    1.2721   -0.0354 C   0  0  0  0  0  0
    4.7015   -0.1253   -0.0425 C   0  0  0  0  0  0
    3.5159   -0.7959   -0.0353 C   0  0  0  0  0  0
    5.9689    1.9343   -0.0436 N   0  0  0  0  0  0
    7.2147    1.1636   -0.0591 C   0  0  0  0  0  0
    7.6286    0.9065   -1.4851 C   0  0  0  0  0  0
    7.3653   -0.3174   -2.0705 C   0  0  0  0  0  0
    7.7430   -0.5560   -3.3778 C   0  0  0  0  0  0
    8.3882    0.4335   -4.1065 C   0  0  0  0  0  0
    8.6535    1.6619   -3.5217 C   0  0  0  0  0  0
    8.2686    1.9007   -2.2112 C   0  0  0  0  0  0
    8.5223    3.1059   -1.6368 O   0  0  0  0  0  0
    9.1843    4.0824   -2.4432 C   0  0  0  0  0  0
    8.7600    0.1980   -5.3923 O   0  0  0  0  0  0
    8.4552   -1.0903   -5.9302 C   0  0  0  0  0  0
    6.0135    3.3986   -0.0366 C   0  0  0  0  0  0
   -1.2038   -0.6834    0.0103 N   0  0  0  0  0  0
    0.2210    3.8756    0.0200 H   0  0  0  0  0  0
    1.9006    3.9154    0.0045 H   0  0  0  0  0  0
    3.5995    3.0835   -0.0156 H   0  0  0  0  0  0
    5.6274   -0.6812   -0.0543 H   0  0  0  0  0  0
    3.5048   -1.8758   -0.0413 H   0  0  0  0  0  0
    7.9967    1.7267    0.4503 H   0  0  0  0  0  0
    7.0602    0.2130    0.4515 H   0  0  0  0  0  0
    6.8637   -1.0887   -1.5049 H   0  0  0  0  0  0
    7.5365   -1.5134   -3.8329 H   0  0  0  0  0  0
    9.1557    2.4329   -4.0870 H   0  0  0  0  0  0
   10.1547    3.6973   -2.7567 H   0  0  0  0  0  0
    8.5780    4.2989   -3.3227 H   0  0  0  0  0  0
    9.3254    4.9957   -1.8652 H   0  0  0  0  0  0
    8.8049   -1.1457   -6.9611 H   0  0  0  0  0  0
    8.9509   -1.8584   -5.3366 H   0  0  0  0  0  0
    7.3772   -1.2496   -5.9031 H   0  0  0  0  0  0
    6.0341    3.7566    0.9927 H   0  0  0  0  0  0
    6.9092    3.7373   -0.5571 H   0  0  0  0  0  0
    5.1302    3.7914   -0.5402 H   0  0  0  0  0  0
   -2.0386   -0.1896    0.0213 H   0  0  0  0  0  0
   -1.2140   -1.6533    0.0052 H   0  0  0  0  0  0
  1  2  1  0  0  0
  1  6  2  0  0  0
  2  3  2  0  0  0
  2 25  1  0  0  0
  3  4  1  0  0  0
  4  5  2  0  0  0
  4 11  1  0  0  0
  5  6  1  0  0  0
  5  8  1  0  0  0
  6  7  1  0  0  0
  7 26  1  0  0  0
  7 27  1  0  0  0
  8  9  2  0  0  0
  8 28  1  0  0  0
  9 10  1  0  0  0
  9 12  1  0  0  0
 10 11  2  0  0  0
 10 29  1  0  0  0
 11 30  1  0  0  0
 12 13  1  0  0  0
 12 24  1  0  0  0
 13 14  1  0  0  0
 13 31  1  0  0  0
 13 32  1  0  0  0
 14 15  1  0  0  0
 14 19  2  0  0  0
 15 16  2  0  0  0
 15 33  1  0  0  0
 16 17  1  0  0  0
 16 34  1  0  0  0
 17 18  2  0  0  0
 17 22  1  0  0  0
 18 19  1  0  0  0
 18 35  1  0  0  0
 19 20  1  0  0  0
 20 21  1  0  0  0
 21 36  1  0  0  0
 21 37  1  0  0  0
 21 38  1  0  0  0
 22 23  1  0  0  0
 23 39  1  0  0  0
 23 40  1  0  0  0
 23 41  1  0  0  0
 24 42  1  0  0  0
 24 43  1  0  0  0
 24 44  1  0  0  0
 25 45  1  0  0  0
 25 46  1  0  0  0
M  END
>  <Activity>
7.36653

>  <set_rl>
1

>  <Min_dist>
999.9

>  <Avg_dist>
999.9

>  <PC_uM>
0.1

>  <TG_uM>
0.039

>  <RL_uM>
0.043

$$$$
15-15
 Wcorina  11170919323D 1   1.00000     0.00000              
CORINA evaluation license 3.46 0067  05.08.2008
 44 47  0  0  0  0  0  0  0  0999 V2000
   -0.0300    1.7959    0.0930 N   0  0  0  0  0  0
   -0.1214    0.4768   -0.0543 C   0  0  0  0  0  0
    0.9356   -0.3050   -0.1550 N   0  0  0  0  0  0
    2.1727    0.2149   -0.1113 C   0  0  0  0  0  0
    2.3175    1.6144    0.0444 C   0  0  0  0  0  0
    1.1450    2.4047    0.1474 C   0  0  0  0  0  0
    1.2259    3.7730    0.2999 N   0  0  0  0  0  0
    3.5966    2.1789    0.0930 C   0  0  0  0  0  0
    4.7022    1.3598   -0.0119 C   0  0  0  0  0  0
    4.5520   -0.0214   -0.1656 C   0  0  0  0  0  0
    3.3153   -0.5902   -0.2152 C   0  0  0  0  0  0
    5.9844    1.9167    0.0353 N   0  0  0  0  0  0
    7.1626    1.0530   -0.0755 C   0  0  0  0  0  0
    7.4806    0.8215   -1.5302 C   0  0  0  0  0  0
    8.6287    0.0979   -1.8958 C   0  0  0  0  0  0
    8.9108   -0.1099   -3.2690 C   0  0  0  0  0  0
    8.0374    0.4117   -4.2386 C   0  0  0  0  0  0
    6.9353    1.1077   -3.8473 C   0  0  0  0  0  0
    6.6546    1.3071   -2.4967 C   0  0  0  0  0  0
   10.0588   -0.8334   -3.6347 C   0  0  0  0  0  0
   10.8822   -1.3234   -2.6683 C   0  0  0  0  0  0
   10.6045   -1.1194   -1.3178 C   0  0  0  0  0  0
    9.5027   -0.4230   -0.9264 C   0  0  0  0  0  0
    6.1492    3.3635    0.1957 C   0  0  0  0  0  0
   -1.3790   -0.0991   -0.1036 N   0  0  0  0  0  0
    0.4158    4.3020    0.3689 H   0  0  0  0  0  0
    2.0929    4.2063    0.3383 H   0  0  0  0  0  0
    3.7176    3.2456    0.2112 H   0  0  0  0  0  0
    5.4290   -0.6465   -0.2464 H   0  0  0  0  0  0
    3.2154   -1.6589   -0.3346 H   0  0  0  0  0  0
    8.0121    1.5332    0.4102 H   0  0  0  0  0  0
    6.9596    0.0977    0.4086 H   0  0  0  0  0  0
    8.2399    0.2614   -5.2887 H   0  0  0  0  0  0
    6.2659    1.5079   -4.5944 H   0  0  0  0  0  0
    5.7709    1.8592   -2.2129 H   0  0  0  0  0  0
   10.2863   -0.9999   -4.6773 H   0  0  0  0  0  0
   11.7638   -1.8790   -2.9520 H   0  0  0  0  0  0
   11.2740   -1.5196   -0.5707 H   0  0  0  0  0  0
    9.3006   -0.2722    0.1238 H   0  0  0  0  0  0
    6.1065    3.6189    1.2544 H   0  0  0  0  0  0
    7.1133    3.6668   -0.2126 H   0  0  0  0  0  0
    5.3506    3.8812   -0.3355 H   0  0  0  0  0  0
   -2.1703    0.4572   -0.0311 H   0  0  0  0  0  0
   -1.4690   -1.0590   -0.2105 H   0  0  0  0  0  0
  1  2  1  0  0  0
  1  6  2  0  0  0
  2  3  2  0  0  0
  2 25  1  0  0  0
  3  4  1  0  0  0
  4  5  2  0  0  0
  4 11  1  0  0  0
  5  6  1  0  0  0
  5  8  1  0  0  0
  6  7  1  0  0  0
  7 26  1  0  0  0
  7 27  1  0  0  0
  8  9  2  0  0  0
  8 28  1  0  0  0
  9 10  1  0  0  0
  9 12  1  0  0  0
 10 11  2  0  0  0
 10 29  1  0  0  0
 11 30  1  0  0  0
 12 13  1  0  0  0
 12 24  1  0  0  0
 13 14  1  0  0  0
 13 31  1  0  0  0
 13 32  1  0  0  0
 14 15  1  0  0  0
 14 19  2  0  0  0
 15 16  2  0  0  0
 15 23  1  0  0  0
 16 17  1  0  0  0
 16 20  1  0  0  0
 17 18  2  0  0  0
 17 33  1  0  0  0
 18 19  1  0  0  0
 18 34  1  0  0  0
 19 35  1  0  0  0
 20 21  2  0  0  0
 20 36  1  0  0  0
 21 22  1  0  0  0
 21 37  1  0  0  0
 22 23  2  0  0  0
 22 38  1  0  0  0
 23 39  1  0  0  0
 24 40  1  0  0  0
 24 41  1  0  0  0
 24 42  1  0  0  0
 25 43  1  0  0  0
 25 44  1  0  0  0
M  END
>  <Activity>
7.76955

>  <set_rl>
1

>  <Min_dist>
999.9

>  <Avg_dist>
999.9

>  <PC_uM>
0.017

>  <TG_uM>
0.021

>  <RL_uM>
0.017

$$$$
10-5A
 Wcorina  11170919323D 1   1.00000     0.00000              
CORINA evaluation license 3.46 0067  05.08.2008
 48 50  0  0  0  0  0  0  0  0999 V2000
    0.6774   -0.1894   -0.3660 N   0  0  0  0  0  0
    0.8598   -1.4993   -0.2233 C   0  0  0  0  0  0
    2.0532   -2.0421   -0.0767 N   0  0  0  0  0  0
    3.1523   -1.2731   -0.0661 C   0  0  0  0  0  0
    3.0060    0.1273   -0.2149 C   0  0  0  0  0  0
    1.6989    0.6540   -0.3688 C   0  0  0  0  0  0
    1.4961    2.0092   -0.5180 N   0  0  0  0  0  0
    4.1396    0.9469   -0.2065 C   0  0  0  0  0  0
    5.3738    0.3858   -0.0549 C   0  0  0  0  0  0
    5.5199   -0.9905    0.0915 C   0  0  0  0  0  0
    4.4351   -1.8163    0.0880 C   0  0  0  0  0  0
    6.5955    1.2681   -0.0463 C   0  0  0  0  0  0
    6.8818    1.6852    1.3147 O   0  0  0  0  0  0
    7.9513    2.4847    1.4975 C   0  0  0  0  0  0
    8.6262    2.8241    0.5454 O   0  0  0  0  0  0
    8.3019    2.9469    2.8500 C   0  0  0  0  0  0
    9.4148    3.7793    3.0434 C   0  0  0  0  0  0
    9.7376    4.2099    4.3223 C   0  0  0  0  0  0
    8.9591    3.8160    5.4050 C   0  0  0  0  0  0
    7.8565    2.9910    5.2117 C   0  0  0  0  0  0
    7.5235    2.5625    3.9472 C   0  0  0  0  0  0
    9.2771    4.2382    6.6560 O   0  0  0  0  0  0
    8.4356    3.7965    7.7232 C   0  0  0  0  0  0
   10.8161    5.0171    4.5170 O   0  0  0  0  0  0
   12.0515    4.3804    4.8492 C   0  0  0  0  0  0
   10.1726    4.1613    1.9839 O   0  0  0  0  0  0
    9.8750    5.4298    1.3972 C   0  0  0  0  0  0
   -0.2483   -2.3270   -0.2283 N   0  0  0  0  0  0
    0.5965    2.3563   -0.6228 H   0  0  0  0  0  0
    2.2531    2.6157   -0.5182 H   0  0  0  0  0  0
    4.0385    2.0162   -0.3197 H   0  0  0  0  0  0
    6.5077   -1.4108    0.2100 H   0  0  0  0  0  0
    4.5634   -2.8825    0.2026 H   0  0  0  0  0  0
    7.4463    0.7144   -0.4433 H   0  0  0  0  0  0
    6.4133    2.1469   -0.6649 H   0  0  0  0  0  0
    7.2563    2.6889    6.0572 H   0  0  0  0  0  0
    6.6635    1.9255    3.8022 H   0  0  0  0  0  0
    8.4488    2.7076    7.7694 H   0  0  0  0  0  0
    8.8000    4.2046    8.6659 H   0  0  0  0  0  0
    7.4162    4.1404    7.5482 H   0  0  0  0  0  0
   11.9594    3.8929    5.8198 H   0  0  0  0  0  0
   12.2923    3.6362    4.0902 H   0  0  0  0  0  0
   12.8450    5.1265    4.8912 H   0  0  0  0  0  0
   10.4906    5.5729    0.5091 H   0  0  0  0  0  0
    8.8218    5.4630    1.1183 H   0  0  0  0  0  0
   10.0854    6.2212    2.1165 H   0  0  0  0  0  0
   -1.1354   -1.9491   -0.3345 H   0  0  0  0  0  0
   -0.1384   -3.2852   -0.1258 H   0  0  0  0  0  0
  1  2  1  0  0  0
  1  6  2  0  0  0
  2  3  2  0  0  0
  2 28  1  0  0  0
  3  4  1  0  0  0
  4  5  2  0  0  0
  4 11  1  0  0  0
  5  6  1  0  0  0
  5  8  1  0  0  0
  6  7  1  0  0  0
  7 29  1  0  0  0
  7 30  1  0  0  0
  8  9  2  0  0  0
  8 31  1  0  0  0
  9 10  1  0  0  0
  9 12  1  0  0  0
 10 11  2  0  0  0
 10 32  1  0  0  0
 11 33  1  0  0  0
 12 13  1  0  0  0
 12 34  1  0  0  0
 12 35  1  0  0  0
 13 14  1  0  0  0
 14 15  2  0  0  0
 14 16  1  0  0  0
 16 17  1  0  0  0
 16 21  2  0  0  0
 17 18  2  0  0  0
 17 26  1  0  0  0
 18 19  1  0  0  0
 18 24  1  0  0  0
 19 20  2  0  0  0
 19 22  1  0  0  0
 20 21  1  0  0  0
 20 36  1  0  0  0
 21 37  1  0  0  0
 22 23  1  0  0  0
 23 38  1  0  0  0
 23 39  1  0  0  0
 23 40  1  0  0  0
 24 25  1  0  0  0
 25 41  1  0  0  0
 25 42  1  0  0  0
 25 43  1  0  0  0
 26 27  1  0  0  0
 27 44  1  0  0  0
 27 45  1  0  0  0
 27 46  1  0  0  0
 28 47  1  0  0  0
 28 48  1  0  0  0
M  END
>  <Activity>
6.30103

>  <set_rl>
1

>  <Min_dist>
999.9

>  <Avg_dist>
999.9

>  <PC_uM>
1.4

>  <TG_uM>
0.14

>  <RL_uM>
0.5

$$$$
6-7
 Wcorina  11170919323D 1   1.00000     0.00000              
CORINA evaluation license 3.46 0067  05.08.2008
 24 25  0  0  0  0  0  0  0  0999 V2000
   -0.0139    1.3256    0.0677 N   0  0  0  0  0  0
    0.0042   -0.0044    0.0611 C   0  0  0  0  0  0
    1.1214   -0.7024   -0.0099 N   0  0  0  0  0  0
    2.3082   -0.0796   -0.0796 C   0  0  0  0  0  0
    2.3354    1.3360   -0.0754 C   0  0  0  0  0  0
    1.1058    2.0320    0.0024 C   0  0  0  0  0  0
    1.0733    3.4101    0.0106 N   0  0  0  0  0  0
    3.5666    2.0071   -0.1472 C   0  0  0  0  0  0
    4.7331    1.2721   -0.2208 C   0  0  0  0  0  0
    4.6965   -0.1171   -0.2243 C   0  0  0  0  0  0
    3.5123   -0.7910   -0.1554 C   0  0  0  0  0  0
    3.6096    3.3636   -0.1446 O   0  0  0  0  0  0
    4.9005    3.9719   -0.2202 C   0  0  0  0  0  0
   -1.1984   -0.6838    0.1320 N   0  0  0  0  0  0
    0.3042    3.8750    0.3757 H   0  0  0  0  0  0
    1.8194    3.9150   -0.3489 H   0  0  0  0  0  0
    5.6835    1.7819   -0.2766 H   0  0  0  0  0  0
    5.6209   -0.6725   -0.2829 H   0  0  0  0  0  0
    3.5033   -1.8709   -0.1597 H   0  0  0  0  0  0
    5.5006    3.6582    0.6340 H   0  0  0  0  0  0
    5.3933    3.6649   -1.1427 H   0  0  0  0  0  0
    4.7923    5.0564   -0.2096 H   0  0  0  0  0  0
   -2.0318   -0.1904    0.1852 H   0  0  0  0  0  0
   -1.2083   -1.6538    0.1286 H   0  0  0  0  0  0
  1  2  1  0  0  0
  1  6  2  0  0  0
  2  3  2  0  0  0
  2 14  1  0  0  0
  3  4  1  0  0  0
  4  5  2  0  0  0
  4 11  1  0  0  0
  5  6  1  0  0  0
  5  8  1  0  0  0
  6  7  1  0  0  0
  7 15  1  0  0  0
  7 16  1  0  0  0
  8  9  2  0  0  0
  8 12  1  0  0  0
  9 10  1  0  0  0
  9 17  1  0  0  0
 10 11  2  0  0  0
 10 18  1  0  0  0
 11 19  1  0  0  0
 12 13  1  0  0  0
 13 20  1  0  0  0
 13 21  1  0  0  0
 13 22  1  0  0  0
 14 23  1  0  0  0
 14 24  1  0  0  0
M  END
>  <Activity>
5.92082

>  <set_rl>
1

>  <Min_dist>
999.9

>  <Avg_dist>
999.9

>  <PC_uM>
4.5

>  <TG_uM>
0.48

>  <RL_uM>
1.2

$$$$
6-14
 Wcorina  11170919323D 1   1.00000     0.00000              
CORINA evaluation license 3.46 0067  05.08.2008
 23 24  0  0  0  0  0  0  0  0999 V2000
   -0.0160    1.3261    0.0093 N   0  0  0  0  0  0
    0.0021   -0.0041    0.0020 C   0  0  0  0  0  0
    1.1210   -0.7028   -0.0124 N   0  0  0  0  0  0
    2.3097   -0.0811   -0.0204 C   0  0  0  0  0  0
    2.3388    1.3344   -0.0131 C   0  0  0  0  0  0
    1.1049    2.0321    0.0024 C   0  0  0  0  0  0
    1.0723    3.4101    0.0097 N   0  0  0  0  0  0
    3.5682    2.0019   -0.0212 C   0  0  0  0  0  0
    4.7253    1.2796   -0.0361 C   0  0  0  0  0  0
    4.6990   -0.1119   -0.0433 C   0  0  0  0  0  0
    3.5174   -0.7921   -0.0353 C   0  0  0  0  0  0
    6.0500    1.9981   -0.0454 C   0  0  0  0  0  0
   -1.2029   -0.6830    0.0103 N   0  0  0  0  0  0
    0.2210    3.8750    0.0200 H   0  0  0  0  0  0
    1.9005    3.9149    0.0045 H   0  0  0  0  0  0
    3.6009    3.0814   -0.0161 H   0  0  0  0  0  0
    5.6287   -0.6613   -0.0551 H   0  0  0  0  0  0
    3.5121   -1.8720   -0.0410 H   0  0  0  0  0  0
    6.3794    2.1661    0.9800 H   0  0  0  0  0  0
    6.7886    1.3916   -0.5695 H   0  0  0  0  0  0
    5.9401    2.9562   -0.5533 H   0  0  0  0  0  0
   -2.0377   -0.1892    0.0213 H   0  0  0  0  0  0
   -1.2131   -1.6529    0.0052 H   0  0  0  0  0  0
  1  2  1  0  0  0
  1  6  2  0  0  0
  2  3  2  0  0  0
  2 13  1  0  0  0
  3  4  1  0  0  0
  4  5  2  0  0  0
  4 11  1  0  0  0
  5  6  1  0  0  0
  5  8  1  0  0  0
  6  7  1  0  0  0
  7 14  1  0  0  0
  7 15  1  0  0  0
  8  9  2  0  0  0
  8 16  1  0  0  0
  9 10  1  0  0  0
  9 12  1  0  0  0
 10 11  2  0  0  0
 10 17  1  0  0  0
 11 18  1  0  0  0
 12 19  1  0  0  0
 12 20  1  0  0  0
 12 21  1  0  0  0
 13 22  1  0  0  0
 13 23  1  0  0  0
M  END
>  <Activity>
4.25964

>  <set_rl>
1

>  <Min_dist>
999.9

>  <Avg_dist>
999.9

>  <PC_uM>
20

>  <TG_uM>
N/A

>  <RL_uM>
55

$$$$
6-15
 Wcorina  11170919323D 1   1.00000     0.00000              
CORINA evaluation license 3.46 0067  05.08.2008
 23 24  0  0  0  0  0  0  0  0999 V2000
   -0.0160    1.3261    0.0093 N   0  0  0  0  0  0
    0.0021   -0.0041    0.0020 C   0  0  0  0  0  0
    1.1210   -0.7028   -0.0124 N   0  0  0  0  0  0
    2.3097   -0.0811   -0.0204 C   0  0  0  0  0  0
    2.3388    1.3344   -0.0131 C   0  0  0  0  0  0
    1.1049    2.0321    0.0024 C   0  0  0  0  0  0
    1.0723    3.4101    0.0097 N   0  0  0  0  0  0
    3.5682    2.0019   -0.0212 C   0  0  0  0  0  0
    4.7253    1.2796   -0.0361 C   0  0  0  0  0  0
    4.6990   -0.1119   -0.0433 C   0  0  0  0  0  0
    3.5174   -0.7921   -0.0353 C   0  0  0  0  0  0
    6.0500    1.9981   -0.0454 C   0  0  0  0  0  0
    6.4727    2.2138    1.2707 F   0  0  0  0  0  0
    6.9980    1.2197   -0.7180 F   0  0  0  0  0  0
    5.9090    3.2278   -0.6973 F   0  0  0  0  0  0
   -1.2029   -0.6830    0.0103 N   0  0  0  0  0  0
    0.2210    3.8750    0.0200 H   0  0  0  0  0  0
    1.9005    3.9149    0.0045 H   0  0  0  0  0  0
    3.6009    3.0814   -0.0161 H   0  0  0  0  0  0
    5.6287   -0.6613   -0.0551 H   0  0  0  0  0  0
    3.5121   -1.8720   -0.0410 H   0  0  0  0  0  0
   -2.0377   -0.1892    0.0213 H   0  0  0  0  0  0
   -1.2131   -1.6529    0.0052 H   0  0  0  0  0  0
  1  2  1  0  0  0
  1  6  2  0  0  0
  2  3  2  0  0  0
  2 16  1  0  0  0
  3  4  1  0  0  0
  4  5  2  0  0  0
  4 11  1  0  0  0
  5  6  1  0  0  0
  5  8  1  0  0  0
  6  7  1  0  0  0
  7 17  1  0  0  0
  7 18  1  0  0  0
  8  9  2  0  0  0
  8 19  1  0  0  0
  9 10  1  0  0  0
  9 12  1  0  0  0
 10 11  2  0  0  0
 10 20  1  0  0  0
 11 21  1  0  0  0
 12 13  1  0  0  0
 12 14  1  0  0  0
 12 15  1  0  0  0
 16 22  1  0  0  0
 16 23  1  0  0  0
M  END
>  <Activity>
5.38722

>  <set_rl>
1

>  <Min_dist>
999.9

>  <Avg_dist>
999.9

>  <PC_uM>
2.7

>  <TG_uM>
3.1

>  <RL_uM>
4.1

$$$$
6-16
 Wcorina  11170919323D 1   1.00000     0.00000              
CORINA evaluation license 3.46 0067  05.08.2008
 20 21  0  0  0  0  0  0  0  0999 V2000
   -0.0160    1.3262    0.0093 N   0  0  0  0  0  0
    0.0021   -0.0041    0.0020 C   0  0  0  0  0  0
    1.1208   -0.7026   -0.0120 N   0  0  0  0  0  0
    2.3099   -0.0807   -0.0200 C   0  0  0  0  0  0
    2.3388    1.3346   -0.0131 C   0  0  0  0  0  0
    1.1048    2.0321    0.0024 C   0  0  0  0  0  0
    1.0720    3.4104    0.0097 N   0  0  0  0  0  0
    3.5679    2.0029   -0.0208 C   0  0  0  0  0  0
    4.7268    1.2799   -0.0348 C   0  0  0  0  0  0
    4.6994   -0.1136   -0.0420 C   0  0  0  0  0  0
    3.5172   -0.7923   -0.0344 C   0  0  0  0  0  0
    5.9145    1.9236   -0.0422 F   0  0  0  0  0  0
   -1.2032   -0.6832    0.0099 N   0  0  0  0  0  0
    0.2207    3.8753    0.0200 H   0  0  0  0  0  0
    1.9003    3.9153    0.0045 H   0  0  0  0  0  0
    3.6003    3.0824   -0.0160 H   0  0  0  0  0  0
    5.6286   -0.6638   -0.0535 H   0  0  0  0  0  0
    3.5110   -1.8723   -0.0394 H   0  0  0  0  0  0
   -2.0381   -0.1895    0.0205 H   0  0  0  0  0  0
   -1.2134   -1.6532    0.0048 H   0  0  0  0  0  0
  1  2  1  0  0  0
  1  6  2  0  0  0
  2  3  2  0  0  0
  2 13  1  0  0  0
  3  4  1  0  0  0
  4  5  2  0  0  0
  4 11  1  0  0  0
  5  6  1  0  0  0
  5  8  1  0  0  0
  6  7  1  0  0  0
  7 14  1  0  0  0
  7 15  1  0  0  0
  8  9  2  0  0  0
  8 16  1  0  0  0
  9 10  1  0  0  0
  9 12  1  0  0  0
 10 11  2  0  0  0
 10 17  1  0  0  0
 11 18  1  0  0  0
 13 19  1  0  0  0
 13 20  1  0  0  0
M  END
>  <Activity>
3.34486

>  <set_rl>
1

>  <Min_dist>
999.9

>  <Avg_dist>
999.9

>  <PC_uM>
119

>  <TG_uM>
104

>  <RL_uM>
452

$$$$
6-21
 Wcorina  11170919323D 1   1.00000     0.00000              
CORINA evaluation license 3.46 0067  05.08.2008
 23 24  0  0  0  0  0  0  0  0999 V2000
   -0.0160    1.3261    0.0093 N   0  0  0  0  0  0
    0.0021   -0.0041    0.0020 C   0  0  0  0  0  0
    1.1210   -0.7028   -0.0124 N   0  0  0  0  0  0
    2.3097   -0.0811   -0.0204 C   0  0  0  0  0  0
    2.3388    1.3344   -0.0131 C   0  0  0  0  0  0
    1.1049    2.0321    0.0024 C   0  0  0  0  0  0
    1.0723    3.4101    0.0097 N   0  0  0  0  0  0
    3.5682    2.0019   -0.0212 C   0  0  0  0  0  0
    4.7253    1.2796   -0.0361 C   0  0  0  0  0  0
    4.6990   -0.1119   -0.0433 C   0  0  0  0  0  0
    3.5174   -0.7921   -0.0353 C   0  0  0  0  0  0
    5.9963   -0.8785   -0.0598 C   0  0  0  0  0  0
   -1.2029   -0.6830    0.0103 N   0  0  0  0  0  0
    0.2210    3.8750    0.0200 H   0  0  0  0  0  0
    1.9005    3.9149    0.0045 H   0  0  0  0  0  0
    3.6009    3.0814   -0.0161 H   0  0  0  0  0  0
    5.6747    1.7945   -0.0428 H   0  0  0  0  0  0
    3.5121   -1.8720   -0.0410 H   0  0  0  0  0  0
    6.3189   -1.0689    0.9638 H   0  0  0  0  0  0
    5.8514   -1.8268   -0.5774 H   0  0  0  0  0  0
    6.7570   -0.2944   -0.5778 H   0  0  0  0  0  0
   -2.0377   -0.1892    0.0213 H   0  0  0  0  0  0
   -1.2131   -1.6529    0.0052 H   0  0  0  0  0  0
  1  2  1  0  0  0
  1  6  2  0  0  0
  2  3  2  0  0  0
  2 13  1  0  0  0
  3  4  1  0  0  0
  4  5  2  0  0  0
  4 11  1  0  0  0
  5  6  1  0  0  0
  5  8  1  0  0  0
  6  7  1  0  0  0
  7 14  1  0  0  0
  7 15  1  0  0  0
  8  9  2  0  0  0
  8 16  1  0  0  0
  9 10  1  0  0  0
  9 17  1  0  0  0
 10 11  2  0  0  0
 10 12  1  0  0  0
 11 18  1  0  0  0
 12 19  1  0  0  0
 12 20  1  0  0  0
 12 21  1  0  0  0
 13 22  1  0  0  0
 13 23  1  0  0  0
M  END
>  <Activity>
4.37675

>  <set_rl>
1

>  <Min_dist>
999.9

>  <Avg_dist>
999.9

>  <PC_uM>
65

>  <TG_uM>
81

>  <RL_uM>
42

$$$$
6-22
 Wcorina  11170919323D 1   1.00000     0.00000              
CORINA evaluation license 3.46 0067  05.08.2008
 23 24  0  0  0  0  0  0  0  0999 V2000
   -0.0160    1.3261    0.0093 N   0  0  0  0  0  0
    0.0021   -0.0041    0.0020 C   0  0  0  0  0  0
    1.1210   -0.7028   -0.0124 N   0  0  0  0  0  0
    2.3097   -0.0811   -0.0204 C   0  0  0  0  0  0
    2.3388    1.3344   -0.0131 C   0  0  0  0  0  0
    1.1049    2.0321    0.0024 C   0  0  0  0  0  0
    1.0723    3.4101    0.0097 N   0  0  0  0  0  0
    3.5682    2.0019   -0.0212 C   0  0  0  0  0  0
    4.7253    1.2796   -0.0361 C   0  0  0  0  0  0
    4.6990   -0.1119   -0.0433 C   0  0  0  0  0  0
    3.5174   -0.7921   -0.0353 C   0  0  0  0  0  0
    5.9963   -0.8785   -0.0598 C   0  0  0  0  0  0
    7.0688    0.0198   -0.0652 F   0  0  0  0  0  0
    6.0731   -1.6897    1.0775 F   0  0  0  0  0  0
    6.0514   -1.6774   -1.2069 F   0  0  0  0  0  0
   -1.2029   -0.6830    0.0103 N   0  0  0  0  0  0
    0.2210    3.8750    0.0200 H   0  0  0  0  0  0
    1.9005    3.9149    0.0045 H   0  0  0  0  0  0
    3.6009    3.0814   -0.0161 H   0  0  0  0  0  0
    5.6747    1.7945   -0.0428 H   0  0  0  0  0  0
    3.5121   -1.8720   -0.0410 H   0  0  0  0  0  0
   -2.0377   -0.1892    0.0213 H   0  0  0  0  0  0
   -1.2131   -1.6529    0.0052 H   0  0  0  0  0  0
  1  2  1  0  0  0
  1  6  2  0  0  0
  2  3  2  0  0  0
  2 16  1  0  0  0
  3  4  1  0  0  0
  4  5  2  0  0  0
  4 11  1  0  0  0
  5  6  1  0  0  0
  5  8  1  0  0  0
  6  7  1  0  0  0
  7 17  1  0  0  0
  7 18  1  0  0  0
  8  9  2  0  0  0
  8 19  1  0  0  0
  9 10  1  0  0  0
  9 20  1  0  0  0
 10 11  2  0  0  0
 10 12  1  0  0  0
 11 21  1  0  0  0
 12 13  1  0  0  0
 12 14  1  0  0  0
 12 15  1  0  0  0
 16 22  1  0  0  0
 16 23  1  0  0  0
M  END
>  <Activity>
4.20066

>  <set_rl>
1

>  <Min_dist>
999.9

>  <Avg_dist>
999.9

>  <PC_uM>
31

>  <TG_uM>
N/A

>  <RL_uM>
63

$$$$
6-23
 Wcorina  11170919323D 1   1.00000     0.00000              
CORINA evaluation license 3.46 0067  05.08.2008
 20 21  0  0  0  0  0  0  0  0999 V2000
   -0.0160    1.3260    0.0093 N   0  0  0  0  0  0
    0.0021   -0.0041    0.0020 C   0  0  0  0  0  0
    1.1211   -0.7026   -0.0124 N   0  0  0  0  0  0
    2.3099   -0.0805   -0.0204 C   0  0  0  0  0  0
    2.3386    1.3355   -0.0131 C   0  0  0  0  0  0
    1.1050    2.0323    0.0024 C   0  0  0  0  0  0
    1.0720    3.4104    0.0101 N   0  0  0  0  0  0
    3.5677    2.0044   -0.0208 C   0  0  0  0  0  0
    4.7254    1.2843   -0.0352 C   0  0  0  0  0  0
    4.7004   -0.1098   -0.0429 C   0  0  0  0  0  0
    3.5167   -0.7912   -0.0347 C   0  0  0  0  0  0
    5.8638   -0.7965   -0.0581 F   0  0  0  0  0  0
   -1.2028   -0.6831    0.0103 N   0  0  0  0  0  0
    0.2206    3.8751    0.0207 H   0  0  0  0  0  0
    1.9001    3.9155    0.0049 H   0  0  0  0  0  0
    3.5991    3.0840   -0.0156 H   0  0  0  0  0  0
    5.6741    1.8004   -0.0411 H   0  0  0  0  0  0
    3.5113   -1.8712   -0.0402 H   0  0  0  0  0  0
   -2.0377   -0.1894    0.0213 H   0  0  0  0  0  0
   -1.2129   -1.6531    0.0052 H   0  0  0  0  0  0
  1  2  1  0  0  0
  1  6  2  0  0  0
  2  3  2  0  0  0
  2 13  1  0  0  0
  3  4  1  0  0  0
  4  5  2  0  0  0
  4 11  1  0  0  0
  5  6  1  0  0  0
  5  8  1  0  0  0
  6  7  1  0  0  0
  7 14  1  0  0  0
  7 15  1  0  0  0
  8  9  2  0  0  0
  8 16  1  0  0  0
  9 10  1  0  0  0
  9 17  1  0  0  0
 10 11  2  0  0  0
 10 12  1  0  0  0
 11 18  1  0  0  0
 13 19  1  0  0  0
 13 20  1  0  0  0
M  END
>  <Activity>
3.72354

>  <set_rl>
1

>  <Min_dist>
999.9

>  <Avg_dist>
999.9

>  <PC_uM>
41

>  <TG_uM>
N/A

>  <RL_uM>
189

$$$$
6-1
 Wcorina  11170919323D 1   1.00000     0.00000              
CORINA evaluation license 3.46 0067  05.08.2008
 23 24  0  0  0  0  0  0  0  0999 V2000
    0.0591    1.3304   -0.2322 N   0  0  0  0  0  0
    0.0778    0.0003   -0.2486 C   0  0  0  0  0  0
    1.1330   -0.7033    0.1145 N   0  0  0  0  0  0
    2.2522   -0.0871    0.5233 C   0  0  0  0  0  0
    2.2779    1.3281    0.5569 C   0  0  0  0  0  0
    1.1144    2.0313    0.1553 C   0  0  0  0  0  0
    1.0820    3.4092    0.1671 N   0  0  0  0  0  0
    3.4354    1.9900    0.9800 C   0  0  0  0  0  0
    4.5266    1.2626    1.3555 C   0  0  0  0  0  0
    4.5036   -0.1287    1.3233 C   0  0  0  0  0  0
    3.3910   -0.8034    0.9163 C   0  0  0  0  0  0
    3.4767    3.4959    1.0202 C   0  0  0  0  0  0
   -1.0568   -0.6731   -0.6632 N   0  0  0  0  0  0
    1.4655    3.8970    0.9128 H   0  0  0  0  0  0
    0.6757    3.8912   -0.5702 H   0  0  0  0  0  0
    5.4206    1.7732    1.6820 H   0  0  0  0  0  0
    5.3803   -0.6822    1.6255 H   0  0  0  0  0  0
    3.3873   -1.8832    0.8964 H   0  0  0  0  0  0
    3.0186    3.8474    1.9447 H   0  0  0  0  0  0
    4.5126    3.8323    0.9773 H   0  0  0  0  0  0
    2.9287    3.8973    0.1678 H   0  0  0  0  0  0
   -1.8442   -0.1756   -0.9343 H   0  0  0  0  0  0
   -1.0652   -1.6429   -0.6830 H   0  0  0  0  0  0
  1  2  1  0  0  0
  1  6  2  0  0  0
  2  3  2  0  0  0
  2 13  1  0  0  0
  3  4  1  0  0  0
  4  5  2  0  0  0
  4 11  1  0  0  0
  5  6  1  0  0  0
  5  8  1  0  0  0
  6  7  1  0  0  0
  7 14  1  0  0  0
  7 15  1  0  0  0
  8  9  2  0  0  0
  8 12  1  0  0  0
  9 10  1  0  0  0
  9 16  1  0  0  0
 10 11  2  0  0  0
 10 17  1  0  0  0
 11 18  1  0  0  0
 12 19  1  0  0  0
 12 20  1  0  0  0
 12 21  1  0  0  0
 13 22  1  0  0  0
 13 23  1  0  0  0
M  END
>  <Activity>
5.13077

>  <set_rl>
1

>  <Min_dist>
999.9

>  <Avg_dist>
999.9

>  <PC_uM>
1.5

>  <TG_uM>
4.98

>  <RL_uM>
7.4

$$$$
6-26
 Wcorina  11170919323D 1   1.00000     0.00000              
CORINA evaluation license 3.46 0067  05.08.2008
 20 21  0  0  0  0  0  0  0  0999 V2000
    0.0127    1.3253    0.2521 N   0  0  0  0  0  0
    0.0311   -0.0048    0.2477 C   0  0  0  0  0  0
    1.1224   -0.7027   -0.0015 N   0  0  0  0  0  0
    2.2811   -0.0800   -0.2664 C   0  0  0  0  0  0
    2.3080    1.3357   -0.2728 C   0  0  0  0  0  0
    1.1050    2.0321    0.0024 C   0  0  0  0  0  0
    1.0723    3.4103    0.0106 N   0  0  0  0  0  0
    3.5068    2.0050   -0.5464 C   0  0  0  0  0  0
    4.6373    1.2818   -0.8041 C   0  0  0  0  0  0
    4.6111   -0.1101   -0.7983 C   0  0  0  0  0  0
    3.4588   -0.7901   -0.5349 C   0  0  0  0  0  0
    6.1251    2.1094   -1.1436 Cl  0  0  0  0  0  0
    3.5567    3.7402   -0.5587 Cl  0  0  0  0  0  0
   -1.1432   -0.6847    0.5162 N   0  0  0  0  0  0
    0.5859    3.8798    0.7061 H   0  0  0  0  0  0
    1.5358    3.9105   -0.6793 H   0  0  0  0  0  0
    5.5173   -0.6599   -1.0056 H   0  0  0  0  0  0
    3.4539   -1.8701   -0.5336 H   0  0  0  0  0  0
   -1.9574   -0.1915    0.7025 H   0  0  0  0  0  0
   -1.1525   -1.6546    0.5181 H   0  0  0  0  0  0
  1  2  1  0  0  0
  1  6  2  0  0  0
  2  3  2  0  0  0
  2 14  1  0  0  0
  3  4  1  0  0  0
  4  5  2  0  0  0
  4 11  1  0  0  0
  5  6  1  0  0  0
  5  8  1  0  0  0
  6  7  1  0  0  0
  7 15  1  0  0  0
  7 16  1  0  0  0
  8  9  2  0  0  0
  8 13  1  0  0  0
  9 10  1  0  0  0
  9 12  1  0  0  0
 10 11  2  0  0  0
 10 17  1  0  0  0
 11 18  1  0  0  0
 14 19  1  0  0  0
 14 20  1  0  0  0
M  END
>  <Activity>
5.45593

>  <set_rl>
1

>  <Min_dist>
999.9

>  <Avg_dist>
999.9

>  <PC_uM>
9.7

>  <TG_uM>
N/A

>  <RL_uM>
3.5

$$$$
10-18A
 Wcorina  11170919323D 1   1.00000     0.00000              
CORINA evaluation license 3.46 0067  05.08.2008
 24 25  0  0  0  0  0  0  0  0999 V2000
   -0.0160    1.3261    0.0093 N   0  0  0  0  0  0
    0.0021   -0.0041    0.0020 C   0  0  0  0  0  0
    1.1210   -0.7028   -0.0124 N   0  0  0  0  0  0
    2.3097   -0.0811   -0.0204 C   0  0  0  0  0  0
    2.3388    1.3344   -0.0131 C   0  0  0  0  0  0
    1.1049    2.0321    0.0024 C   0  0  0  0  0  0
    1.0723    3.4101    0.0097 N   0  0  0  0  0  0
    3.5682    2.0019   -0.0212 C   0  0  0  0  0  0
    4.7253    1.2796   -0.0361 C   0  0  0  0  0  0
    4.6990   -0.1119   -0.0433 C   0  0  0  0  0  0
    3.5174   -0.7921   -0.0353 C   0  0  0  0  0  0
    6.0500    1.9981   -0.0454 C   0  0  0  0  0  0
    6.4818    2.2184    1.2989 O   0  0  0  0  0  0
   -1.2029   -0.6830    0.0103 N   0  0  0  0  0  0
    0.2210    3.8750    0.0200 H   0  0  0  0  0  0
    1.9005    3.9149    0.0045 H   0  0  0  0  0  0
    3.6009    3.0814   -0.0161 H   0  0  0  0  0  0
    5.6287   -0.6613   -0.0551 H   0  0  0  0  0  0
    3.5121   -1.8720   -0.0410 H   0  0  0  0  0  0
    6.7886    1.3916   -0.5695 H   0  0  0  0  0  0
    5.9401    2.9562   -0.5533 H   0  0  0  0  0  0
    7.3299    2.6776    1.3693 H   0  0  0  0  0  0
   -2.0377   -0.1892    0.0213 H   0  0  0  0  0  0
   -1.2131   -1.6529    0.0052 H   0  0  0  0  0  0
  1  2  1  0  0  0
  1  6  2  0  0  0
  2  3  2  0  0  0
  2 14  1  0  0  0
  3  4  1  0  0  0
  4  5  2  0  0  0
  4 11  1  0  0  0
  5  6  1  0  0  0
  5  8  1  0  0  0
  6  7  1  0  0  0
  7 15  1  0  0  0
  7 16  1  0  0  0
  8  9  2  0  0  0
  8 17  1  0  0  0
  9 10  1  0  0  0
  9 12  1  0  0  0
 10 11  2  0  0  0
 10 18  1  0  0  0
 11 19  1  0  0  0
 12 13  1  0  0  0
 12 20  1  0  0  0
 12 21  1  0  0  0
 13 22  1  0  0  0
 14 23  1  0  0  0
 14 24  1  0  0  0
M  END
>  <Activity>
4.39469

>  <set_rl>
1

>  <Min_dist>
999.9

>  <Avg_dist>
999.9

>  <PC_uM>
51.7

>  <TG_uM>
44.9

>  <RL_uM>
40.3

$$$$
19-1
 Wcorina  11170919323D 1   1.00000     0.00000              
CORINA evaluation license 3.46 0067  05.08.2008
 51 53  0  0  0  0  0  0  0  0999 V2000
   -0.0169    1.3968    0.0097 C   0  0  0  0  0  0
    0.0021   -0.0041    0.0020 C   0  0  0  0  0  0
    1.1691   -0.6368   -0.0079 N   0  0  0  0  0  0
    2.3032    0.0479   -0.0100 C   0  0  0  0  0  0
    2.3130    1.3705   -0.0047 N   0  0  0  0  0  0
    1.1801    2.0692    0.0019 C   0  0  0  0  0  0
    1.2662    3.5714   -0.0069 C   0  0  0  0  0  0
   -0.0610    4.1857    0.4357 C   0  0  0  0  0  0
   -1.1879    3.5580   -0.3929 C   0  0  0  0  0  0
   -1.3464    2.0989    0.0329 C   0  0  0  0  0  0
   -2.4945    4.3125   -0.1391 C   0  0  0  0  0  0
   -3.5406    3.7876   -1.0202 N   0  0  0  0  0  0
   -4.8317    4.3243   -0.9701 C   0  0  0  0  0  0
   -5.8228    3.8266   -1.8052 C   0  0  0  0  0  0
   -7.1023    4.3578   -1.7561 C   0  0  0  0  0  0
   -7.3927    5.3887   -0.8707 C   0  0  0  0  0  0
   -6.4001    5.8864   -0.0351 C   0  0  0  0  0  0
   -5.1226    5.3503   -0.0813 C   0  0  0  0  0  0
   -6.6834    6.8953    0.8317 O   0  0  0  0  0  0
   -5.6152    7.3576    1.6606 C   0  0  0  0  0  0
   -8.6494    5.9114   -0.8222 O   0  0  0  0  0  0
   -9.5687    5.3068    0.0895 C   0  0  0  0  0  0
   -8.0729    3.8704   -2.5745 O   0  0  0  0  0  0
   -7.7036    2.8110   -3.4595 C   0  0  0  0  0  0
    3.5059   -0.6368   -0.0175 N   0  0  0  0  0  0
   -1.1834   -0.7208    0.0051 N   0  0  0  0  0  0
    2.0557    3.8911    0.6733 H   0  0  0  0  0  0
    1.5029    3.9129   -1.0146 H   0  0  0  0  0  0
   -0.2255    3.9793    1.4933 H   0  0  0  0  0  0
   -0.0399    5.2626    0.2688 H   0  0  0  0  0  0
   -0.9339    3.6050   -1.4518 H   0  0  0  0  0  0
   -2.0311    1.5965   -0.6503 H   0  0  0  0  0  0
   -1.7565    2.0605    1.0421 H   0  0  0  0  0  0
   -2.7946    4.1800    0.9004 H   0  0  0  0  0  0
   -2.3468    5.3732   -0.3422 H   0  0  0  0  0  0
   -3.3381    3.0680   -1.6383 H   0  0  0  0  0  0
   -5.5969    3.0256   -2.4935 H   0  0  0  0  0  0
   -4.3523    5.7338    0.5714 H   0  0  0  0  0  0
   -5.9753    8.1613    2.3028 H   0  0  0  0  0  0
   -5.2516    6.5354    2.2770 H   0  0  0  0  0  0
   -4.8038    7.7286    1.0344 H   0  0  0  0  0  0
   -9.6984    4.2558   -0.1687 H   0  0  0  0  0  0
   -9.1792    5.3862    1.1044 H   0  0  0  0  0  0
  -10.5299    5.8173    0.0283 H   0  0  0  0  0  0
   -8.5682    2.5165   -4.0544 H   0  0  0  0  0  0
   -6.9065    3.1510   -4.1207 H   0  0  0  0  0  0
   -7.3545    1.9573   -2.8786 H   0  0  0  0  0  0
    3.5117   -1.6068   -0.0211 H   0  0  0  0  0  0
    4.3430   -0.1467   -0.0191 H   0  0  0  0  0  0
   -2.0330   -0.2529    0.0127 H   0  0  0  0  0  0
   -1.1638   -1.6906   -0.0002 H   0  0  0  0  0  0
  1  2  1  0  0  0
  1  6  2  0  0  0
  1 10  1  0  0  0
  2  3  2  0  0  0
  2 26  1  0  0  0
  3  4  1  0  0  0
  4  5  2  0  0  0
  4 25  1  0  0  0
  5  6  1  0  0  0
  6  7  1  0  0  0
  7  8  1  0  0  0
  7 27  1  0  0  0
  7 28  1  0  0  0
  8  9  1  0  0  0
  8 29  1  0  0  0
  8 30  1  0  0  0
  9 10  1  0  0  0
  9 11  1  0  0  0
  9 31  1  0  0  0
 10 32  1  0  0  0
 10 33  1  0  0  0
 11 12  1  0  0  0
 11 34  1  0  0  0
 11 35  1  0  0  0
 12 13  1  0  0  0
 12 36  1  0  0  0
 13 14  1  0  0  0
 13 18  2  0  0  0
 14 15  2  0  0  0
 14 37  1  0  0  0
 15 16  1  0  0  0
 15 23  1  0  0  0
 16 17  2  0  0  0
 16 21  1  0  0  0
 17 18  1  0  0  0
 17 19  1  0  0  0
 18 38  1  0  0  0
 19 20  1  0  0  0
 20 39  1  0  0  0
 20 40  1  0  0  0
 20 41  1  0  0  0
 21 22  1  0  0  0
 22 42  1  0  0  0
 22 43  1  0  0  0
 22 44  1  0  0  0
 23 24  1  0  0  0
 24 45  1  0  0  0
 24 46  1  0  0  0
 24 47  1  0  0  0
 25 48  1  0  0  0
 25 49  1  0  0  0
 26 50  1  0  0  0
 26 51  1  0  0  0
M  END
>  <Activity>
6.5376

>  <set_rl>
1

>  <Min_dist>
999.9

>  <Avg_dist>
999.9

>  <PC_uM>
4.6

>  <TG_uM>
0.054

>  <RL_uM>
0.29

$$$$
19-2
 Wcorina  11170919323D 1   1.00000     0.00000              
CORINA evaluation license 3.46 0067  05.08.2008
 54 56  0  0  0  0  0  0  0  0999 V2000
   -0.0169    1.3968    0.0097 C   0  0  0  0  0  0
    0.0021   -0.0041    0.0020 C   0  0  0  0  0  0
    1.1691   -0.6368   -0.0079 N   0  0  0  0  0  0
    2.3032    0.0479   -0.0100 C   0  0  0  0  0  0
    2.3130    1.3705   -0.0047 N   0  0  0  0  0  0
    1.1801    2.0692    0.0019 C   0  0  0  0  0  0
    1.2662    3.5714   -0.0069 C   0  0  0  0  0  0
   -0.0610    4.1857    0.4357 C   0  0  0  0  0  0
   -1.1879    3.5580   -0.3929 C   0  0  0  0  0  0
   -1.3464    2.0989    0.0329 C   0  0  0  0  0  0
   -2.4945    4.3125   -0.1391 C   0  0  0  0  0  0
   -3.5406    3.7876   -1.0202 N   0  0  0  0  0  0
   -4.3449    2.7247   -0.5951 C   0  0  0  0  0  0
   -5.3362    2.2275   -1.4303 C   0  0  0  0  0  0
   -6.1335    1.1744   -1.0098 C   0  0  0  0  0  0
   -5.9404    0.6164    0.2481 C   0  0  0  0  0  0
   -4.9480    1.1145    1.0836 C   0  0  0  0  0  0
   -4.1477    2.1640    0.6595 C   0  0  0  0  0  0
   -4.7582    0.5690    2.3148 O   0  0  0  0  0  0
   -3.7203    1.1309    3.1204 C   0  0  0  0  0  0
   -6.7236   -0.4180    0.6621 O   0  0  0  0  0  0
   -6.2653   -1.7384    0.3645 C   0  0  0  0  0  0
   -7.1048    0.6879   -1.8279 O   0  0  0  0  0  0
   -7.2476    1.3096   -3.1066 C   0  0  0  0  0  0
   -3.7445    4.3757   -2.3464 C   0  0  0  0  0  0
    3.5059   -0.6368   -0.0175 N   0  0  0  0  0  0
   -1.1834   -0.7208    0.0051 N   0  0  0  0  0  0
    2.0557    3.8911    0.6733 H   0  0  0  0  0  0
    1.5029    3.9129   -1.0146 H   0  0  0  0  0  0
   -0.2255    3.9793    1.4933 H   0  0  0  0  0  0
   -0.0399    5.2626    0.2688 H   0  0  0  0  0  0
   -0.9339    3.6050   -1.4518 H   0  0  0  0  0  0
   -2.0311    1.5965   -0.6503 H   0  0  0  0  0  0
   -1.7565    2.0605    1.0421 H   0  0  0  0  0  0
   -2.7946    4.1800    0.9004 H   0  0  0  0  0  0
   -2.3468    5.3732   -0.3422 H   0  0  0  0  0  0
   -5.4864    2.6616   -2.4078 H   0  0  0  0  0  0
   -3.3732    2.5481    1.3068 H   0  0  0  0  0  0
   -3.9281    2.1863    3.2966 H   0  0  0  0  0  0
   -3.6758    0.6052    4.0742 H   0  0  0  0  0  0
   -2.7652    1.0297    2.6049 H   0  0  0  0  0  0
   -5.2946   -1.9003    0.8331 H   0  0  0  0  0  0
   -6.9800   -2.4663    0.7485 H   0  0  0  0  0  0
   -6.1717   -1.8557   -0.7151 H   0  0  0  0  0  0
   -8.0553    0.8272   -3.6570 H   0  0  0  0  0  0
   -7.4794    2.3663   -2.9729 H   0  0  0  0  0  0
   -6.3169    1.2097   -3.6651 H   0  0  0  0  0  0
   -3.1237    3.8538   -3.0746 H   0  0  0  0  0  0
   -4.7931    4.2809   -2.6285 H   0  0  0  0  0  0
   -3.4685    5.4299   -2.3227 H   0  0  0  0  0  0
    3.5117   -1.6068   -0.0211 H   0  0  0  0  0  0
    4.3430   -0.1467   -0.0191 H   0  0  0  0  0  0
   -2.0330   -0.2529    0.0127 H   0  0  0  0  0  0
   -1.1638   -1.6906   -0.0002 H   0  0  0  0  0  0
  1  2  1  0  0  0
  1  6  2  0  0  0
  1 10  1  0  0  0
  2  3  2  0  0  0
  2 27  1  0  0  0
  3  4  1  0  0  0
  4  5  2  0  0  0
  4 26  1  0  0  0
  5  6  1  0  0  0
  6  7  1  0  0  0
  7  8  1  0  0  0
  7 28  1  0  0  0
  7 29  1  0  0  0
  8  9  1  0  0  0
  8 30  1  0  0  0
  8 31  1  0  0  0
  9 10  1  0  0  0
  9 11  1  0  0  0
  9 32  1  0  0  0
 10 33  1  0  0  0
 10 34  1  0  0  0
 11 12  1  0  0  0
 11 35  1  0  0  0
 11 36  1  0  0  0
 12 13  1  0  0  0
 12 25  1  0  0  0
 13 14  1  0  0  0
 13 18  2  0  0  0
 14 15  2  0  0  0
 14 37  1  0  0  0
 15 16  1  0  0  0
 15 23  1  0  0  0
 16 17  2  0  0  0
 16 21  1  0  0  0
 17 18  1  0  0  0
 17 19  1  0  0  0
 18 38  1  0  0  0
 19 20  1  0  0  0
 20 39  1  0  0  0
 20 40  1  0  0  0
 20 41  1  0  0  0
 21 22  1  0  0  0
 22 42  1  0  0  0
 22 43  1  0  0  0
 22 44  1  0  0  0
 23 24  1  0  0  0
 24 45  1  0  0  0
 24 46  1  0  0  0
 24 47  1  0  0  0
 25 48  1  0  0  0
 25 49  1  0  0  0
 25 50  1  0  0  0
 26 51  1  0  0  0
 26 52  1  0  0  0
 27 53  1  0  0  0
 27 54  1  0  0  0
M  END
>  <Activity>
7.42022

>  <set_rl>
1

>  <Min_dist>
999.9

>  <Avg_dist>
999.9

>  <PC_uM>
0.095

>  <TG_uM>
0.007

>  <RL_uM>
0.038

$$$$
19-5
 Wcorina  11170919323D 1   1.00000     0.00000              
CORINA evaluation license 3.46 0067  05.08.2008
 50 52  0  0  0  0  0  0  0  0999 V2000
   -0.0169    1.3968    0.0097 C   0  0  0  0  0  0
    0.0021   -0.0041    0.0020 C   0  0  0  0  0  0
    1.1691   -0.6368   -0.0079 N   0  0  0  0  0  0
    2.3032    0.0479   -0.0100 C   0  0  0  0  0  0
    2.3130    1.3705   -0.0047 N   0  0  0  0  0  0
    1.1801    2.0692    0.0019 C   0  0  0  0  0  0
    1.2662    3.5714   -0.0069 C   0  0  0  0  0  0
   -0.0610    4.1857    0.4357 C   0  0  0  0  0  0
   -1.1879    3.5580   -0.3929 C   0  0  0  0  0  0
   -1.3464    2.0989    0.0329 C   0  0  0  0  0  0
   -2.4945    4.3125   -0.1391 C   0  0  0  0  0  0
   -3.5435    3.7862   -1.0226 N   0  0  0  0  0  0
   -4.7993    4.2904   -0.6658 C   0  0  0  0  0  0
   -5.0308    5.6578   -0.6879 C   0  0  0  0  0  0
   -6.2760    6.1544   -0.3344 C   0  0  0  0  0  0
   -7.2893    5.2850    0.0413 C   0  0  0  0  0  0
   -7.0607    3.9215    0.0645 C   0  0  0  0  0  0
   -5.8208    3.4197   -0.2935 C   0  0  0  0  0  0
   -5.5986    2.0771   -0.2763 O   0  0  0  0  0  0
   -6.6913    1.2437    0.1157 C   0  0  0  0  0  0
   -6.5040    7.4947   -0.3557 O   0  0  0  0  0  0
   -7.8098    7.9367    0.0203 C   0  0  0  0  0  0
   -3.2404    4.0760   -2.4304 C   0  0  0  0  0  0
    3.5059   -0.6368   -0.0175 N   0  0  0  0  0  0
   -1.1834   -0.7208    0.0051 N   0  0  0  0  0  0
    2.0557    3.8911    0.6733 H   0  0  0  0  0  0
    1.5029    3.9129   -1.0146 H   0  0  0  0  0  0
   -0.2255    3.9793    1.4933 H   0  0  0  0  0  0
   -0.0399    5.2626    0.2688 H   0  0  0  0  0  0
   -0.9339    3.6050   -1.4518 H   0  0  0  0  0  0
   -2.0311    1.5965   -0.6503 H   0  0  0  0  0  0
   -1.7565    2.0605    1.0421 H   0  0  0  0  0  0
   -2.7946    4.1800    0.9004 H   0  0  0  0  0  0
   -2.3468    5.3732   -0.3422 H   0  0  0  0  0  0
   -4.2417    6.3350   -0.9798 H   0  0  0  0  0  0
   -8.2586    5.6737    0.3167 H   0  0  0  0  0  0
   -7.8515    3.2469    0.3578 H   0  0  0  0  0  0
   -6.3805    0.1994    0.0863 H   0  0  0  0  0  0
   -7.0005    1.5024    1.1284 H   0  0  0  0  0  0
   -7.5263    1.3936   -0.5687 H   0  0  0  0  0  0
   -8.0205    7.6200    1.0418 H   0  0  0  0  0  0
   -7.8567    9.0241   -0.0399 H   0  0  0  0  0  0
   -8.5484    7.5033   -0.6540 H   0  0  0  0  0  0
   -2.2912    3.6130   -2.7005 H   0  0  0  0  0  0
   -4.0328    3.6754   -3.0626 H   0  0  0  0  0  0
   -3.1721    5.1545   -2.5729 H   0  0  0  0  0  0
    3.5117   -1.6068   -0.0211 H   0  0  0  0  0  0
    4.3430   -0.1467   -0.0191 H   0  0  0  0  0  0
   -2.0330   -0.2529    0.0127 H   0  0  0  0  0  0
   -1.1638   -1.6906   -0.0002 H   0  0  0  0  0  0
  1  2  1  0  0  0
  1  6  2  0  0  0
  1 10  1  0  0  0
  2  3  2  0  0  0
  2 25  1  0  0  0
  3  4  1  0  0  0
  4  5  2  0  0  0
  4 24  1  0  0  0
  5  6  1  0  0  0
  6  7  1  0  0  0
  7  8  1  0  0  0
  7 26  1  0  0  0
  7 27  1  0  0  0
  8  9  1  0  0  0
  8 28  1  0  0  0
  8 29  1  0  0  0
  9 10  1  0  0  0
  9 11  1  0  0  0
  9 30  1  0  0  0
 10 31  1  0  0  0
 10 32  1  0  0  0
 11 12  1  0  0  0
 11 33  1  0  0  0
 11 34  1  0  0  0
 12 13  1  0  0  0
 12 23  1  0  0  0
 13 14  1  0  0  0
 13 18  2  0  0  0
 14 15  2  0  0  0
 14 35  1  0  0  0
 15 16  1  0  0  0
 15 21  1  0  0  0
 16 17  2  0  0  0
 16 36  1  0  0  0
 17 18  1  0  0  0
 17 37  1  0  0  0
 18 19  1  0  0  0
 19 20  1  0  0  0
 20 38  1  0  0  0
 20 39  1  0  0  0
 20 40  1  0  0  0
 21 22  1  0  0  0
 22 41  1  0  0  0
 22 42  1  0  0  0
 22 43  1  0  0  0
 23 44  1  0  0  0
 23 45  1  0  0  0
 23 46  1  0  0  0
 24 47  1  0  0  0
 24 48  1  0  0  0
 25 49  1  0  0  0
 25 50  1  0  0  0
M  END
>  <Activity>
6.58503

>  <set_rl>
1

>  <Min_dist>
999.9

>  <Avg_dist>
999.9

>  <PC_uM>
0.3

>  <TG_uM>
0.015

>  <RL_uM>
0.26

$$$$
19-6
 Wcorina  11170919323D 1   1.00000     0.00000              
CORINA evaluation license 3.46 0067  05.08.2008
 53 55  0  0  0  0  0  0  0  0999 V2000
   -0.0169    1.3968    0.0097 C   0  0  0  0  0  0
    0.0021   -0.0041    0.0020 C   0  0  0  0  0  0
    1.1691   -0.6368   -0.0079 N   0  0  0  0  0  0
    2.3032    0.0479   -0.0100 C   0  0  0  0  0  0
    2.3130    1.3705   -0.0047 N   0  0  0  0  0  0
    1.1801    2.0692    0.0019 C   0  0  0  0  0  0
    1.2662    3.5714   -0.0069 C   0  0  0  0  0  0
   -0.0610    4.1857    0.4357 C   0  0  0  0  0  0
   -1.1879    3.5580   -0.3929 C   0  0  0  0  0  0
   -1.3464    2.0989    0.0329 C   0  0  0  0  0  0
   -2.4945    4.3125   -0.1391 C   0  0  0  0  0  0
   -3.5435    3.7862   -1.0226 N   0  0  0  0  0  0
   -4.7993    4.2904   -0.6658 C   0  0  0  0  0  0
   -5.0308    5.6578   -0.6879 C   0  0  0  0  0  0
   -6.2760    6.1544   -0.3344 C   0  0  0  0  0  0
   -7.2893    5.2850    0.0413 C   0  0  0  0  0  0
   -7.0607    3.9215    0.0645 C   0  0  0  0  0  0
   -5.8208    3.4197   -0.2935 C   0  0  0  0  0  0
   -5.5986    2.0771   -0.2763 O   0  0  0  0  0  0
   -6.6913    1.2437    0.1157 C   0  0  0  0  0  0
   -6.5040    7.4947   -0.3557 O   0  0  0  0  0  0
   -7.8098    7.9367    0.0203 C   0  0  0  0  0  0
   -3.2404    4.0760   -2.4304 C   0  0  0  0  0  0
   -4.2103    3.3069   -3.3297 C   0  0  0  0  0  0
    3.5059   -0.6368   -0.0175 N   0  0  0  0  0  0
   -1.1834   -0.7208    0.0051 N   0  0  0  0  0  0
    2.0557    3.8911    0.6733 H   0  0  0  0  0  0
    1.5029    3.9129   -1.0146 H   0  0  0  0  0  0
   -0.2255    3.9793    1.4933 H   0  0  0  0  0  0
   -0.0399    5.2626    0.2688 H   0  0  0  0  0  0
   -0.9339    3.6050   -1.4518 H   0  0  0  0  0  0
   -2.0311    1.5965   -0.6503 H   0  0  0  0  0  0
   -1.7565    2.0605    1.0421 H   0  0  0  0  0  0
   -2.7946    4.1800    0.9004 H   0  0  0  0  0  0
   -2.3468    5.3732   -0.3422 H   0  0  0  0  0  0
   -4.2417    6.3350   -0.9798 H   0  0  0  0  0  0
   -8.2586    5.6737    0.3167 H   0  0  0  0  0  0
   -7.8515    3.2469    0.3578 H   0  0  0  0  0  0
   -6.3805    0.1994    0.0863 H   0  0  0  0  0  0
   -7.0005    1.5024    1.1284 H   0  0  0  0  0  0
   -7.5263    1.3936   -0.5687 H   0  0  0  0  0  0
   -8.5484    7.5033   -0.6540 H   0  0  0  0  0  0
   -8.0205    7.6200    1.0418 H   0  0  0  0  0  0
   -7.8567    9.0241   -0.0399 H   0  0  0  0  0  0
   -3.3466    5.1454   -2.6123 H   0  0  0  0  0  0
   -2.2182    3.7694   -2.6526 H   0  0  0  0  0  0
   -3.9854    3.5219   -4.3744 H   0  0  0  0  0  0
   -4.1040    2.2374   -3.1478 H   0  0  0  0  0  0
   -5.2324    3.6134   -3.1076 H   0  0  0  0  0  0
    3.5117   -1.6068   -0.0211 H   0  0  0  0  0  0
    4.3430   -0.1467   -0.0191 H   0  0  0  0  0  0
   -2.0330   -0.2529    0.0127 H   0  0  0  0  0  0
   -1.1638   -1.6906   -0.0002 H   0  0  0  0  0  0
  1  2  1  0  0  0
  1  6  2  0  0  0
  1 10  1  0  0  0
  2  3  2  0  0  0
  2 26  1  0  0  0
  3  4  1  0  0  0
  4  5  2  0  0  0
  4 25  1  0  0  0
  5  6  1  0  0  0
  6  7  1  0  0  0
  7  8  1  0  0  0
  7 27  1  0  0  0
  7 28  1  0  0  0
  8  9  1  0  0  0
  8 29  1  0  0  0
  8 30  1  0  0  0
  9 10  1  0  0  0
  9 11  1  0  0  0
  9 31  1  0  0  0
 10 32  1  0  0  0
 10 33  1  0  0  0
 11 12  1  0  0  0
 11 34  1  0  0  0
 11 35  1  0  0  0
 12 13  1  0  0  0
 12 23  1  0  0  0
 13 14  1  0  0  0
 13 18  2  0  0  0
 14 15  2  0  0  0
 14 36  1  0  0  0
 15 16  1  0  0  0
 15 21  1  0  0  0
 16 17  2  0  0  0
 16 37  1  0  0  0
 17 18  1  0  0  0
 17 38  1  0  0  0
 18 19  1  0  0  0
 19 20  1  0  0  0
 20 39  1  0  0  0
 20 40  1  0  0  0
 20 41  1  0  0  0
 21 22  1  0  0  0
 22 42  1  0  0  0
 22 43  1  0  0  0
 22 44  1  0  0  0
 23 24  1  0  0  0
 23 45  1  0  0  0
 23 46  1  0  0  0
 24 47  1  0  0  0
 24 48  1  0  0  0
 24 49  1  0  0  0
 25 50  1  0  0  0
 25 51  1  0  0  0
 26 52  1  0  0  0
 26 53  1  0  0  0
M  END
>  <Activity>
7.14874

>  <set_rl>
1

>  <Min_dist>
999.9

>  <Avg_dist>
999.9

>  <PC_uM>
0.114

>  <TG_uM>
0.017

>  <RL_uM>
0.071

$$$$
19-9
 Wcorina  11170919323D 1   1.00000     0.00000              
CORINA evaluation license 3.46 0067  05.08.2008
 39 41  0  0  0  0  0  0  0  0999 V2000
   -0.0169    1.3968    0.0097 C   0  0  0  0  0  0
    0.0021   -0.0041    0.0020 C   0  0  0  0  0  0
    1.1691   -0.6368   -0.0079 N   0  0  0  0  0  0
    2.3032    0.0479   -0.0100 C   0  0  0  0  0  0
    2.3130    1.3705   -0.0047 N   0  0  0  0  0  0
    1.1801    2.0692    0.0019 C   0  0  0  0  0  0
    1.2662    3.5714   -0.0069 C   0  0  0  0  0  0
   -0.0610    4.1857    0.4357 C   0  0  0  0  0  0
   -1.1879    3.5580   -0.3929 C   0  0  0  0  0  0
   -1.3464    2.0989    0.0329 C   0  0  0  0  0  0
   -2.4945    4.3125   -0.1391 C   0  0  0  0  0  0
   -3.5406    3.7876   -1.0202 N   0  0  0  0  0  0
   -4.8302    4.3236   -0.9701 C   0  0  0  0  0  0
   -5.8231    3.8267   -1.8051 C   0  0  0  0  0  0
   -7.0968    4.3579   -1.7541 C   0  0  0  0  0  0
   -7.3851    5.3848   -0.8725 C   0  0  0  0  0  0
   -6.3977    5.8824   -0.0389 C   0  0  0  0  0  0
   -5.1227    5.3499   -0.0817 C   0  0  0  0  0  0
   -6.7631    7.1708    1.0658 Cl  0  0  0  0  0  0
   -8.9871    6.0507   -0.8120 Cl  0  0  0  0  0  0
    3.5059   -0.6368   -0.0175 N   0  0  0  0  0  0
   -1.1834   -0.7208    0.0051 N   0  0  0  0  0  0
    2.0557    3.8911    0.6733 H   0  0  0  0  0  0
    1.5029    3.9129   -1.0146 H   0  0  0  0  0  0
   -0.2255    3.9793    1.4933 H   0  0  0  0  0  0
   -0.0399    5.2626    0.2688 H   0  0  0  0  0  0
   -0.9339    3.6050   -1.4518 H   0  0  0  0  0  0
   -2.0311    1.5965   -0.6503 H   0  0  0  0  0  0
   -1.7565    2.0605    1.0421 H   0  0  0  0  0  0
   -2.7946    4.1800    0.9004 H   0  0  0  0  0  0
   -2.3468    5.3732   -0.3422 H   0  0  0  0  0  0
   -3.3381    3.0680   -1.6383 H   0  0  0  0  0  0
   -5.5989    3.0257   -2.4940 H   0  0  0  0  0  0
   -7.8687    3.9716   -2.4032 H   0  0  0  0  0  0
   -4.3538    5.7350    0.5716 H   0  0  0  0  0  0
    3.5117   -1.6068   -0.0211 H   0  0  0  0  0  0
    4.3430   -0.1467   -0.0191 H   0  0  0  0  0  0
   -2.0330   -0.2529    0.0127 H   0  0  0  0  0  0
   -1.1638   -1.6906   -0.0002 H   0  0  0  0  0  0
  1  2  1  0  0  0
  1  6  2  0  0  0
  1 10  1  0  0  0
  2  3  2  0  0  0
  2 22  1  0  0  0
  3  4  1  0  0  0
  4  5  2  0  0  0
  4 21  1  0  0  0
  5  6  1  0  0  0
  6  7  1  0  0  0
  7  8  1  0  0  0
  7 23  1  0  0  0
  7 24  1  0  0  0
  8  9  1  0  0  0
  8 25  1  0  0  0
  8 26  1  0  0  0
  9 10  1  0  0  0
  9 11  1  0  0  0
  9 27  1  0  0  0
 10 28  1  0  0  0
 10 29  1  0  0  0
 11 12  1  0  0  0
 11 30  1  0  0  0
 11 31  1  0  0  0
 12 13  1  0  0  0
 12 32  1  0  0  0
 13 14  1  0  0  0
 13 18  2  0  0  0
 14 15  2  0  0  0
 14 33  1  0  0  0
 15 16  1  0  0  0
 15 34  1  0  0  0
 16 17  2  0  0  0
 16 20  1  0  0  0
 17 18  1  0  0  0
 17 19  1  0  0  0
 18 35  1  0  0  0
 21 36  1  0  0  0
 21 37  1  0  0  0
 22 38  1  0  0  0
 22 39  1  0  0  0
M  END
>  <Activity>
6.82391

>  <set_rl>
1

>  <Min_dist>
999.9

>  <Avg_dist>
999.9

>  <PC_uM>
6.8

>  <TG_uM>
0.11

>  <RL_uM>
0.15

$$$$
19-12
 Wcorina  11170919323D 1   1.00000     0.00000              
CORINA evaluation license 3.46 0067  05.08.2008
 39 41  0  0  0  0  0  0  0  0999 V2000
   -0.0169    1.3968    0.0097 C   0  0  0  0  0  0
    0.0021   -0.0041    0.0020 C   0  0  0  0  0  0
    1.1691   -0.6368   -0.0079 N   0  0  0  0  0  0
    2.3032    0.0479   -0.0100 C   0  0  0  0  0  0
    2.3130    1.3705   -0.0047 N   0  0  0  0  0  0
    1.1801    2.0692    0.0019 C   0  0  0  0  0  0
    1.2662    3.5714   -0.0069 C   0  0  0  0  0  0
   -0.0610    4.1857    0.4357 C   0  0  0  0  0  0
   -1.1879    3.5580   -0.3929 C   0  0  0  0  0  0
   -1.3464    2.0989    0.0329 C   0  0  0  0  0  0
   -2.4945    4.3125   -0.1391 C   0  0  0  0  0  0
   -3.5435    3.7862   -1.0226 N   0  0  0  0  0  0
   -4.7541    4.4549   -0.8167 C   0  0  0  0  0  0
   -5.3552    5.1449   -1.8624 C   0  0  0  0  0  0
   -6.5522    5.8043   -1.6552 C   0  0  0  0  0  0
   -7.1513    5.7783   -0.4092 C   0  0  0  0  0  0
   -6.5558    5.0931    0.6338 C   0  0  0  0  0  0
   -5.3620    4.4261    0.4326 C   0  0  0  0  0  0
   -4.6192    3.5597    1.7407 Cl  0  0  0  0  0  0
   -4.6035    5.1792   -3.4268 Cl  0  0  0  0  0  0
    3.5059   -0.6368   -0.0175 N   0  0  0  0  0  0
   -1.1834   -0.7208    0.0051 N   0  0  0  0  0  0
    2.0557    3.8911    0.6733 H   0  0  0  0  0  0
    1.5029    3.9129   -1.0146 H   0  0  0  0  0  0
   -0.2255    3.9793    1.4933 H   0  0  0  0  0  0
   -0.0399    5.2626    0.2688 H   0  0  0  0  0  0
   -0.9339    3.6050   -1.4518 H   0  0  0  0  0  0
   -2.0311    1.5965   -0.6503 H   0  0  0  0  0  0
   -1.7565    2.0605    1.0421 H   0  0  0  0  0  0
   -2.7946    4.1800    0.9004 H   0  0  0  0  0  0
   -2.3468    5.3732   -0.3422 H   0  0  0  0  0  0
   -3.2614    3.8386   -1.9899 H   0  0  0  0  0  0
   -7.0200    6.3409   -2.4675 H   0  0  0  0  0  0
   -8.0864    6.2948   -0.2502 H   0  0  0  0  0  0
   -7.0264    5.0752    1.6058 H   0  0  0  0  0  0
    3.5117   -1.6068   -0.0211 H   0  0  0  0  0  0
    4.3430   -0.1467   -0.0191 H   0  0  0  0  0  0
   -2.0330   -0.2529    0.0127 H   0  0  0  0  0  0
   -1.1638   -1.6906   -0.0002 H   0  0  0  0  0  0
  1  2  1  0  0  0
  1  6  2  0  0  0
  1 10  1  0  0  0
  2  3  2  0  0  0
  2 22  1  0  0  0
  3  4  1  0  0  0
  4  5  2  0  0  0
  4 21  1  0  0  0
  5  6  1  0  0  0
  6  7  1  0  0  0
  7  8  1  0  0  0
  7 23  1  0  0  0
  7 24  1  0  0  0
  8  9  1  0  0  0
  8 25  1  0  0  0
  8 26  1  0  0  0
  9 10  1  0  0  0
  9 11  1  0  0  0
  9 27  1  0  0  0
 10 28  1  0  0  0
 10 29  1  0  0  0
 11 12  1  0  0  0
 11 30  1  0  0  0
 11 31  1  0  0  0
 12 13  1  0  0  0
 12 32  1  0  0  0
 13 14  1  0  0  0
 13 18  2  0  0  0
 14 15  2  0  0  0
 14 20  1  0  0  0
 15 16  1  0  0  0
 15 33  1  0  0  0
 16 17  2  0  0  0
 16 34  1  0  0  0
 17 18  1  0  0  0
 17 35  1  0  0  0
 18 19  1  0  0  0
 21 36  1  0  0  0
 21 37  1  0  0  0
 22 38  1  0  0  0
 22 39  1  0  0  0
M  END
>  <Activity>
6.96257

>  <set_rl>
1

>  <Min_dist>
999.9

>  <Avg_dist>
999.9

>  <PC_uM>
0.502

>  <TG_uM>
0.0099

>  <RL_uM>
0.109

$$$$
19-13
 Wcorina  11170919323D 1   1.00000     0.00000              
CORINA evaluation license 3.46 0067  05.08.2008
 39 41  0  0  0  0  0  0  0  0999 V2000
   -0.0169    1.3968    0.0097 C   0  0  0  0  0  0
    0.0021   -0.0041    0.0020 C   0  0  0  0  0  0
    1.1691   -0.6368   -0.0079 N   0  0  0  0  0  0
    2.3032    0.0479   -0.0100 C   0  0  0  0  0  0
    2.3130    1.3705   -0.0047 N   0  0  0  0  0  0
    1.1801    2.0692    0.0019 C   0  0  0  0  0  0
    1.2662    3.5714   -0.0069 C   0  0  0  0  0  0
   -0.0610    4.1857    0.4357 C   0  0  0  0  0  0
   -1.1879    3.5580   -0.3929 C   0  0  0  0  0  0
   -1.3464    2.0989    0.0329 C   0  0  0  0  0  0
   -2.4945    4.3125   -0.1391 C   0  0  0  0  0  0
   -3.5406    3.7876   -1.0202 N   0  0  0  0  0  0
   -4.8302    4.3236   -0.9701 C   0  0  0  0  0  0
   -5.8230    3.8269   -1.8049 C   0  0  0  0  0  0
   -7.0966    4.3586   -1.7533 C   0  0  0  0  0  0
   -7.3840    5.3852   -0.8711 C   0  0  0  0  0  0
   -6.3967    5.8823   -0.0386 C   0  0  0  0  0  0
   -5.1230    5.3502   -0.0815 C   0  0  0  0  0  0
   -8.9860    6.0511   -0.8090 Cl  0  0  0  0  0  0
    3.5059   -0.6368   -0.0175 N   0  0  0  0  0  0
   -1.1834   -0.7208    0.0051 N   0  0  0  0  0  0
    2.0557    3.8911    0.6733 H   0  0  0  0  0  0
    1.5029    3.9129   -1.0146 H   0  0  0  0  0  0
   -0.2255    3.9793    1.4933 H   0  0  0  0  0  0
   -0.0399    5.2626    0.2688 H   0  0  0  0  0  0
   -0.9339    3.6050   -1.4518 H   0  0  0  0  0  0
   -2.0311    1.5965   -0.6503 H   0  0  0  0  0  0
   -1.7565    2.0605    1.0421 H   0  0  0  0  0  0
   -2.7946    4.1800    0.9004 H   0  0  0  0  0  0
   -2.3468    5.3732   -0.3422 H   0  0  0  0  0  0
   -3.3381    3.0680   -1.6383 H   0  0  0  0  0  0
   -5.5991    3.0259   -2.4939 H   0  0  0  0  0  0
   -7.8689    3.9730   -2.4025 H   0  0  0  0  0  0
   -6.6236    6.6840    0.6485 H   0  0  0  0  0  0
   -4.3541    5.7350    0.5721 H   0  0  0  0  0  0
    3.5117   -1.6068   -0.0211 H   0  0  0  0  0  0
    4.3430   -0.1467   -0.0191 H   0  0  0  0  0  0
   -2.0330   -0.2529    0.0127 H   0  0  0  0  0  0
   -1.1638   -1.6906   -0.0002 H   0  0  0  0  0  0
  1  2  1  0  0  0
  1  6  2  0  0  0
  1 10  1  0  0  0
  2  3  2  0  0  0
  2 21  1  0  0  0
  3  4  1  0  0  0
  4  5  2  0  0  0
  4 20  1  0  0  0
  5  6  1  0  0  0
  6  7  1  0  0  0
  7  8  1  0  0  0
  7 22  1  0  0  0
  7 23  1  0  0  0
  8  9  1  0  0  0
  8 24  1  0  0  0
  8 25  1  0  0  0
  9 10  1  0  0  0
  9 11  1  0  0  0
  9 26  1  0  0  0
 10 27  1  0  0  0
 10 28  1  0  0  0
 11 12  1  0  0  0
 11 29  1  0  0  0
 11 30  1  0  0  0
 12 13  1  0  0  0
 12 31  1  0  0  0
 13 14  1  0  0  0
 13 18  2  0  0  0
 14 15  2  0  0  0
 14 32  1  0  0  0
 15 16  1  0  0  0
 15 33  1  0  0  0
 16 17  2  0  0  0
 16 19  1  0  0  0
 17 18  1  0  0  0
 17 34  1  0  0  0
 18 35  1  0  0  0
 20 36  1  0  0  0
 20 37  1  0  0  0
 21 38  1  0  0  0
 21 39  1  0  0  0
M  END
>  <Activity>
6.89279

>  <set_rl>
1

>  <Min_dist>
999.9

>  <Avg_dist>
999.9

>  <PC_uM>
0.94

>  <TG_uM>
0.078

>  <RL_uM>
0.128

$$$$
19-14
 Wcorina  11170919323D 1   1.00000     0.00000              
CORINA evaluation license 3.46 0067  05.08.2008
 42 44  0  0  0  0  0  0  0  0999 V2000
   -0.0169    1.3968    0.0097 C   0  0  0  0  0  0
    0.0021   -0.0041    0.0020 C   0  0  0  0  0  0
    1.1691   -0.6368   -0.0079 N   0  0  0  0  0  0
    2.3032    0.0479   -0.0100 C   0  0  0  0  0  0
    2.3130    1.3705   -0.0047 N   0  0  0  0  0  0
    1.1801    2.0692    0.0019 C   0  0  0  0  0  0
    1.2662    3.5714   -0.0069 C   0  0  0  0  0  0
   -0.0610    4.1857    0.4357 C   0  0  0  0  0  0
   -1.1879    3.5580   -0.3929 C   0  0  0  0  0  0
   -1.3464    2.0989    0.0329 C   0  0  0  0  0  0
   -2.4945    4.3125   -0.1391 C   0  0  0  0  0  0
   -3.5406    3.7876   -1.0202 N   0  0  0  0  0  0
   -4.3440    2.7260   -0.5956 C   0  0  0  0  0  0
   -5.3362    2.2273   -1.4299 C   0  0  0  0  0  0
   -6.1288    1.1780   -1.0077 C   0  0  0  0  0  0
   -5.9351    0.6235    0.2453 C   0  0  0  0  0  0
   -4.9476    1.1186    1.0788 C   0  0  0  0  0  0
   -4.1480    2.1637    0.6593 C   0  0  0  0  0  0
   -6.9331   -0.6953    0.7728 Cl  0  0  0  0  0  0
   -3.7445    4.3757   -2.3464 C   0  0  0  0  0  0
    3.5059   -0.6368   -0.0175 N   0  0  0  0  0  0
   -1.1834   -0.7208    0.0051 N   0  0  0  0  0  0
    2.0557    3.8911    0.6733 H   0  0  0  0  0  0
    1.5029    3.9129   -1.0146 H   0  0  0  0  0  0
   -0.2255    3.9793    1.4933 H   0  0  0  0  0  0
   -0.0399    5.2626    0.2688 H   0  0  0  0  0  0
   -0.9339    3.6050   -1.4518 H   0  0  0  0  0  0
   -2.0311    1.5965   -0.6503 H   0  0  0  0  0  0
   -1.7565    2.0605    1.0421 H   0  0  0  0  0  0
   -2.7946    4.1800    0.9004 H   0  0  0  0  0  0
   -2.3468    5.3732   -0.3422 H   0  0  0  0  0  0
   -5.4880    2.6599   -2.4077 H   0  0  0  0  0  0
   -6.9006    0.7901   -1.6558 H   0  0  0  0  0  0
   -4.7991    0.6845    2.0565 H   0  0  0  0  0  0
   -3.3741    2.5463    1.3081 H   0  0  0  0  0  0
   -3.1237    3.8538   -3.0746 H   0  0  0  0  0  0
   -4.7931    4.2809   -2.6285 H   0  0  0  0  0  0
   -3.4685    5.4299   -2.3227 H   0  0  0  0  0  0
    3.5117   -1.6068   -0.0211 H   0  0  0  0  0  0
    4.3430   -0.1467   -0.0191 H   0  0  0  0  0  0
   -2.0330   -0.2529    0.0127 H   0  0  0  0  0  0
   -1.1638   -1.6906   -0.0002 H   0  0  0  0  0  0
  1  2  1  0  0  0
  1  6  2  0  0  0
  1 10  1  0  0  0
  2  3  2  0  0  0
  2 22  1  0  0  0
  3  4  1  0  0  0
  4  5  2  0  0  0
  4 21  1  0  0  0
  5  6  1  0  0  0
  6  7  1  0  0  0
  7  8  1  0  0  0
  7 23  1  0  0  0
  7 24  1  0  0  0
  8  9  1  0  0  0
  8 25  1  0  0  0
  8 26  1  0  0  0
  9 10  1  0  0  0
  9 11  1  0  0  0
  9 27  1  0  0  0
 10 28  1  0  0  0
 10 29  1  0  0  0
 11 12  1  0  0  0
 11 30  1  0  0  0
 11 31  1  0  0  0
 12 13  1  0  0  0
 12 20  1  0  0  0
 13 14  1  0  0  0
 13 18  2  0  0  0
 14 15  2  0  0  0
 14 32  1  0  0  0
 15 16  1  0  0  0
 15 33  1  0  0  0
 16 17  2  0  0  0
 16 19  1  0  0  0
 17 18  1  0  0  0
 17 34  1  0  0  0
 18 35  1  0  0  0
 20 36  1  0  0  0
 20 37  1  0  0  0
 20 38  1  0  0  0
 21 39  1  0  0  0
 21 40  1  0  0  0
 22 41  1  0  0  0
 22 42  1  0  0  0
M  END
>  <Activity>
7.17393

>  <set_rl>
1

>  <Min_dist>
999.9

>  <Avg_dist>
999.9

>  <PC_uM>
0.171

>  <TG_uM>
0.022

>  <RL_uM>
0.067

$$$$
19-15
 Wcorina  11170919323D 1   1.00000     0.00000              
CORINA evaluation license 3.46 0067  05.08.2008
 39 41  0  0  0  0  0  0  0  0999 V2000
   -0.0169    1.3968    0.0097 C   0  0  0  0  0  0
    0.0021   -0.0041    0.0020 C   0  0  0  0  0  0
    1.1691   -0.6368   -0.0079 N   0  0  0  0  0  0
    2.3032    0.0479   -0.0100 C   0  0  0  0  0  0
    2.3130    1.3705   -0.0047 N   0  0  0  0  0  0
    1.1801    2.0692    0.0019 C   0  0  0  0  0  0
    1.2662    3.5714   -0.0069 C   0  0  0  0  0  0
   -0.0610    4.1857    0.4357 C   0  0  0  0  0  0
   -1.1879    3.5580   -0.3929 C   0  0  0  0  0  0
   -1.3464    2.0989    0.0329 C   0  0  0  0  0  0
   -2.4945    4.3125   -0.1391 C   0  0  0  0  0  0
   -3.5406    3.7876   -1.0202 N   0  0  0  0  0  0
   -4.8295    4.3234   -0.9702 C   0  0  0  0  0  0
   -5.8228    3.8266   -1.8051 C   0  0  0  0  0  0
   -7.0963    4.3579   -1.7532 C   0  0  0  0  0  0
   -7.3842    5.3835   -0.8713 C   0  0  0  0  0  0
   -6.3978    5.8808   -0.0383 C   0  0  0  0  0  0
   -5.1225    5.3497   -0.0817 C   0  0  0  0  0  0
   -6.7966    7.2833    1.1658 Br  0  0  0  0  0  0
    3.5059   -0.6368   -0.0175 N   0  0  0  0  0  0
   -1.1834   -0.7208    0.0051 N   0  0  0  0  0  0
    2.0557    3.8911    0.6733 H   0  0  0  0  0  0
    1.5029    3.9129   -1.0146 H   0  0  0  0  0  0
   -0.2255    3.9793    1.4933 H   0  0  0  0  0  0
   -0.0399    5.2626    0.2688 H   0  0  0  0  0  0
   -0.9339    3.6050   -1.4518 H   0  0  0  0  0  0
   -2.0311    1.5965   -0.6503 H   0  0  0  0  0  0
   -1.7565    2.0605    1.0421 H   0  0  0  0  0  0
   -2.7946    4.1800    0.9004 H   0  0  0  0  0  0
   -2.3468    5.3732   -0.3422 H   0  0  0  0  0  0
   -3.3381    3.0680   -1.6383 H   0  0  0  0  0  0
   -5.5989    3.0259   -2.4944 H   0  0  0  0  0  0
   -7.8685    3.9722   -2.4024 H   0  0  0  0  0  0
   -8.3810    5.7974   -0.8330 H   0  0  0  0  0  0
   -4.3538    5.7350    0.5718 H   0  0  0  0  0  0
    3.5117   -1.6068   -0.0211 H   0  0  0  0  0  0
    4.3430   -0.1467   -0.0191 H   0  0  0  0  0  0
   -2.0330   -0.2529    0.0127 H   0  0  0  0  0  0
   -1.1638   -1.6906   -0.0002 H   0  0  0  0  0  0
  1  2  1  0  0  0
  1  6  2  0  0  0
  1 10  1  0  0  0
  2  3  2  0  0  0
  2 21  1  0  0  0
  3  4  1  0  0  0
  4  5  2  0  0  0
  4 20  1  0  0  0
  5  6  1  0  0  0
  6  7  1  0  0  0
  7  8  1  0  0  0
  7 22  1  0  0  0
  7 23  1  0  0  0
  8  9  1  0  0  0
  8 24  1  0  0  0
  8 25  1  0  0  0
  9 10  1  0  0  0
  9 11  1  0  0  0
  9 26  1  0  0  0
 10 27  1  0  0  0
 10 28  1  0  0  0
 11 12  1  0  0  0
 11 29  1  0  0  0
 11 30  1  0  0  0
 12 13  1  0  0  0
 12 31  1  0  0  0
 13 14  1  0  0  0
 13 18  2  0  0  0
 14 15  2  0  0  0
 14 32  1  0  0  0
 15 16  1  0  0  0
 15 33  1  0  0  0
 16 17  2  0  0  0
 16 34  1  0  0  0
 17 18  1  0  0  0
 17 19  1  0  0  0
 18 35  1  0  0  0
 20 36  1  0  0  0
 20 37  1  0  0  0
 21 38  1  0  0  0
 21 39  1  0  0  0
M  END
>  <Activity>
6.64397

>  <set_rl>
1

>  <Min_dist>
999.9

>  <Avg_dist>
999.9

>  <PC_uM>
0.33

>  <TG_uM>
0.03

>  <RL_uM>
0.227

$$$$
19-19
 Wcorina  11170919323D 1   1.00000     0.00000              
CORINA evaluation license 3.46 0067  05.08.2008
 45 48  0  0  0  0  0  0  0  0999 V2000
   -0.0169    1.3968    0.0097 C   0  0  0  0  0  0
    0.0021   -0.0041    0.0020 C   0  0  0  0  0  0
    1.1691   -0.6368   -0.0079 N   0  0  0  0  0  0
    2.3032    0.0479   -0.0100 C   0  0  0  0  0  0
    2.3130    1.3705   -0.0047 N   0  0  0  0  0  0
    1.1801    2.0692    0.0019 C   0  0  0  0  0  0
    1.2662    3.5714   -0.0069 C   0  0  0  0  0  0
   -0.0610    4.1857    0.4357 C   0  0  0  0  0  0
   -1.1879    3.5580   -0.3929 C   0  0  0  0  0  0
   -1.3464    2.0989    0.0329 C   0  0  0  0  0  0
   -2.4945    4.3125   -0.1391 C   0  0  0  0  0  0
   -3.5406    3.7876   -1.0202 N   0  0  0  0  0  0
   -4.8263    4.3220   -0.9703 C   0  0  0  0  0  0
   -5.1210    5.3450   -0.0940 C   0  0  0  0  0  0
   -6.4019    5.8855   -0.0365 C   0  0  0  0  0  0
   -7.3979    5.4210   -0.8407 C   0  0  0  0  0  0
   -7.1393    4.3795   -1.7477 C   0  0  0  0  0  0
   -5.8375    3.8251   -1.8203 C   0  0  0  0  0  0
   -5.5792    2.7891   -2.7313 C   0  0  0  0  0  0
   -6.5787    2.3346   -3.5365 C   0  0  0  0  0  0
   -7.8578    2.8836   -3.4706 C   0  0  0  0  0  0
   -8.1478    3.8805   -2.5904 C   0  0  0  0  0  0
    3.5059   -0.6368   -0.0175 N   0  0  0  0  0  0
   -1.1834   -0.7208    0.0051 N   0  0  0  0  0  0
    2.0557    3.8911    0.6733 H   0  0  0  0  0  0
    1.5029    3.9129   -1.0146 H   0  0  0  0  0  0
   -0.2255    3.9793    1.4933 H   0  0  0  0  0  0
   -0.0399    5.2626    0.2688 H   0  0  0  0  0  0
   -0.9339    3.6050   -1.4518 H   0  0  0  0  0  0
   -2.0311    1.5965   -0.6503 H   0  0  0  0  0  0
   -1.7565    2.0605    1.0421 H   0  0  0  0  0  0
   -2.7946    4.1800    0.9004 H   0  0  0  0  0  0
   -2.3468    5.3732   -0.3422 H   0  0  0  0  0  0
   -3.3381    3.0680   -1.6383 H   0  0  0  0  0  0
   -4.3490    5.7309    0.5552 H   0  0  0  0  0  0
   -6.6097    6.6863    0.6577 H   0  0  0  0  0  0
   -8.3860    5.8527   -0.7811 H   0  0  0  0  0  0
   -4.5923    2.3547   -2.7936 H   0  0  0  0  0  0
   -6.3772    1.5374   -4.2366 H   0  0  0  0  0  0
   -8.6332    2.5055   -4.1205 H   0  0  0  0  0  0
   -9.1439    4.2957   -2.5495 H   0  0  0  0  0  0
    3.5117   -1.6068   -0.0211 H   0  0  0  0  0  0
    4.3430   -0.1467   -0.0191 H   0  0  0  0  0  0
   -2.0330   -0.2529    0.0127 H   0  0  0  0  0  0
   -1.1638   -1.6906   -0.0002 H   0  0  0  0  0  0
  1  2  1  0  0  0
  1  6  2  0  0  0
  1 10  1  0  0  0
  2  3  2  0  0  0
  2 24  1  0  0  0
  3  4  1  0  0  0
  4  5  2  0  0  0
  4 23  1  0  0  0
  5  6  1  0  0  0
  6  7  1  0  0  0
  7  8  1  0  0  0
  7 25  1  0  0  0
  7 26  1  0  0  0
  8  9  1  0  0  0
  8 27  1  0  0  0
  8 28  1  0  0  0
  9 10  1  0  0  0
  9 11  1  0  0  0
  9 29  1  0  0  0
 10 30  1  0  0  0
 10 31  1  0  0  0
 11 12  1  0  0  0
 11 32  1  0  0  0
 11 33  1  0  0  0
 12 13  1  0  0  0
 12 34  1  0  0  0
 13 14  1  0  0  0
 13 18  2  0  0  0
 14 15  2  0  0  0
 14 35  1  0  0  0
 15 16  1  0  0  0
 15 36  1  0  0  0
 16 17  2  0  0  0
 16 37  1  0  0  0
 17 18  1  0  0  0
 17 22  1  0  0  0
 18 19  1  0  0  0
 19 20  2  0  0  0
 19 38  1  0  0  0
 20 21  1  0  0  0
 20 39  1  0  0  0
 21 22  2  0  0  0
 21 40  1  0  0  0
 22 41  1  0  0  0
 23 42  1  0  0  0
 23 43  1  0  0  0
 24 44  1  0  0  0
 24 45  1  0  0  0
M  END
>  <Activity>
6.85699

>  <set_rl>
1

>  <Min_dist>
999.9

>  <Avg_dist>
999.9

>  <PC_uM>
0.517

>  <TG_uM>
0.036

>  <RL_uM>
0.139

$$$$
20-5A
 Wcorina  11170919323D 1   1.00000     0.00000              
CORINA evaluation license 3.46 0067  05.08.2008
 37 39  0  0  0  0  0  0  0  0999 V2000
   -0.0169    1.3968    0.0097 C   0  0  0  0  0  0
    0.0021   -0.0041    0.0020 C   0  0  0  0  0  0
    1.1691   -0.6368   -0.0079 N   0  0  0  0  0  0
    2.3032    0.0479   -0.0100 C   0  0  0  0  0  0
    2.3130    1.3705   -0.0047 N   0  0  0  0  0  0
    1.1801    2.0692    0.0019 C   0  0  0  0  0  0
    1.2662    3.5714   -0.0069 C   0  0  0  0  0  0
   -0.0610    4.1857    0.4357 C   0  0  0  0  0  0
   -1.1879    3.5580   -0.3929 C   0  0  0  0  0  0
   -1.3464    2.0989    0.0329 C   0  0  0  0  0  0
   -2.4945    4.3125   -0.1391 C   0  0  0  0  0  0
   -3.5706    3.7726   -1.0454 C   0  0  0  0  0  0
   -4.3653    2.7224   -0.6254 C   0  0  0  0  0  0
   -5.3524    2.2270   -1.4568 C   0  0  0  0  0  0
   -5.5451    2.7822   -2.7080 C   0  0  0  0  0  0
   -4.7510    3.8330   -3.1277 C   0  0  0  0  0  0
   -3.7667    4.3312   -2.2946 C   0  0  0  0  0  0
    3.5059   -0.6368   -0.0175 N   0  0  0  0  0  0
   -1.1834   -0.7208    0.0051 N   0  0  0  0  0  0
    2.0557    3.8911    0.6733 H   0  0  0  0  0  0
    1.5029    3.9129   -1.0146 H   0  0  0  0  0  0
   -0.2255    3.9793    1.4933 H   0  0  0  0  0  0
   -0.0399    5.2626    0.2688 H   0  0  0  0  0  0
   -0.9339    3.6050   -1.4518 H   0  0  0  0  0  0
   -2.0311    1.5965   -0.6503 H   0  0  0  0  0  0
   -1.7565    2.0605    1.0421 H   0  0  0  0  0  0
   -2.7946    4.1800    0.9004 H   0  0  0  0  0  0
   -2.3468    5.3732   -0.3422 H   0  0  0  0  0  0
   -4.2148    2.2886    0.3521 H   0  0  0  0  0  0
   -5.9728    1.4061   -1.1289 H   0  0  0  0  0  0
   -6.3158    2.3948   -3.3578 H   0  0  0  0  0  0
   -4.9013    4.2665   -4.1054 H   0  0  0  0  0  0
   -3.1488    5.1545   -2.6210 H   0  0  0  0  0  0
    3.5117   -1.6068   -0.0211 H   0  0  0  0  0  0
    4.3430   -0.1467   -0.0191 H   0  0  0  0  0  0
   -2.0330   -0.2529    0.0127 H   0  0  0  0  0  0
   -1.1638   -1.6906   -0.0002 H   0  0  0  0  0  0
  1  2  1  0  0  0
  1  6  2  0  0  0
  1 10  1  0  0  0
  2  3  2  0  0  0
  2 19  1  0  0  0
  3  4  1  0  0  0
  4  5  2  0  0  0
  4 18  1  0  0  0
  5  6  1  0  0  0
  6  7  1  0  0  0
  7  8  1  0  0  0
  7 20  1  0  0  0
  7 21  1  0  0  0
  8  9  1  0  0  0
  8 22  1  0  0  0
  8 23  1  0  0  0
  9 10  1  0  0  0
  9 11  1  0  0  0
  9 24  1  0  0  0
 10 25  1  0  0  0
 10 26  1  0  0  0
 11 12  1  0  0  0
 11 27  1  0  0  0
 11 28  1  0  0  0
 12 13  1  0  0  0
 12 17  2  0  0  0
 13 14  2  0  0  0
 13 29  1  0  0  0
 14 15  1  0  0  0
 14 30  1  0  0  0
 15 16  2  0  0  0
 15 31  1  0  0  0
 16 17  1  0  0  0
 16 32  1  0  0  0
 17 33  1  0  0  0
 18 34  1  0  0  0
 18 35  1  0  0  0
 19 36  1  0  0  0
 19 37  1  0  0  0
M  END
>  <Activity>
6.74473

>  <set_rl>
1

>  <Min_dist>
999.9

>  <Avg_dist>
999.9

>  <PC_uM>
0.29

>  <TG_uM>
0.032

>  <RL_uM>
0.18

$$$$
20-5C
 Wcorina  11170919323D 1   1.00000     0.00000              
CORINA evaluation license 3.46 0067  05.08.2008
 40 42  0  0  0  0  0  0  0  0999 V2000
   -0.0169    1.3968    0.0097 C   0  0  0  0  0  0
    0.0021   -0.0041    0.0020 C   0  0  0  0  0  0
    1.1691   -0.6368   -0.0079 N   0  0  0  0  0  0
    2.3032    0.0479   -0.0100 C   0  0  0  0  0  0
    2.3130    1.3705   -0.0047 N   0  0  0  0  0  0
    1.1801    2.0692    0.0019 C   0  0  0  0  0  0
    1.2662    3.5714   -0.0069 C   0  0  0  0  0  0
   -0.0610    4.1857    0.4357 C   0  0  0  0  0  0
   -1.1879    3.5580   -0.3929 C   0  0  0  0  0  0
   -1.3464    2.0989    0.0329 C   0  0  0  0  0  0
   -2.4945    4.3125   -0.1391 C   0  0  0  0  0  0
   -3.5706    3.7726   -1.0454 C   0  0  0  0  0  0
   -4.3654    2.7222   -0.6254 C   0  0  0  0  0  0
   -5.3524    2.2270   -1.4566 C   0  0  0  0  0  0
   -5.5451    2.7822   -2.7080 C   0  0  0  0  0  0
   -4.7511    3.8328   -3.1276 C   0  0  0  0  0  0
   -3.7667    4.3311   -2.2944 C   0  0  0  0  0  0
   -6.2181    1.0814   -0.9991 C   0  0  0  0  0  0
    3.5059   -0.6368   -0.0175 N   0  0  0  0  0  0
   -1.1834   -0.7208    0.0051 N   0  0  0  0  0  0
    2.0557    3.8911    0.6733 H   0  0  0  0  0  0
    1.5029    3.9129   -1.0146 H   0  0  0  0  0  0
   -0.2255    3.9793    1.4933 H   0  0  0  0  0  0
   -0.0399    5.2626    0.2688 H   0  0  0  0  0  0
   -0.9339    3.6050   -1.4518 H   0  0  0  0  0  0
   -2.0311    1.5965   -0.6503 H   0  0  0  0  0  0
   -1.7565    2.0605    1.0421 H   0  0  0  0  0  0
   -2.7946    4.1800    0.9004 H   0  0  0  0  0  0
   -2.3468    5.3732   -0.3422 H   0  0  0  0  0  0
   -4.2149    2.2885    0.3522 H   0  0  0  0  0  0
   -6.3158    2.3948   -3.3579 H   0  0  0  0  0  0
   -4.9014    4.2664   -4.1053 H   0  0  0  0  0  0
   -3.1488    5.1545   -2.6208 H   0  0  0  0  0  0
   -7.0984    1.4724   -0.4890 H   0  0  0  0  0  0
   -6.5296    0.4940   -1.8628 H   0  0  0  0  0  0
   -5.6524    0.4493   -0.3147 H   0  0  0  0  0  0
    3.5117   -1.6068   -0.0211 H   0  0  0  0  0  0
    4.3430   -0.1467   -0.0191 H   0  0  0  0  0  0
   -2.0330   -0.2529    0.0127 H   0  0  0  0  0  0
   -1.1638   -1.6906   -0.0002 H   0  0  0  0  0  0
  1  2  1  0  0  0
  1  6  2  0  0  0
  1 10  1  0  0  0
  2  3  2  0  0  0
  2 20  1  0  0  0
  3  4  1  0  0  0
  4  5  2  0  0  0
  4 19  1  0  0  0
  5  6  1  0  0  0
  6  7  1  0  0  0
  7  8  1  0  0  0
  7 21  1  0  0  0
  7 22  1  0  0  0
  8  9  1  0  0  0
  8 23  1  0  0  0
  8 24  1  0  0  0
  9 10  1  0  0  0
  9 11  1  0  0  0
  9 25  1  0  0  0
 10 26  1  0  0  0
 10 27  1  0  0  0
 11 12  1  0  0  0
 11 28  1  0  0  0
 11 29  1  0  0  0
 12 13  1  0  0  0
 12 17  2  0  0  0
 13 14  2  0  0  0
 13 30  1  0  0  0
 14 15  1  0  0  0
 14 18  1  0  0  0
 15 16  2  0  0  0
 15 31  1  0  0  0
 16 17  1  0  0  0
 16 32  1  0  0  0
 17 33  1  0  0  0
 18 34  1  0  0  0
 18 35  1  0  0  0
 18 36  1  0  0  0
 19 37  1  0  0  0
 19 38  1  0  0  0
 20 39  1  0  0  0
 20 40  1  0  0  0
M  END
>  <Activity>
6.95861

>  <set_rl>
1

>  <Min_dist>
999.9

>  <Avg_dist>
999.9

>  <PC_uM>
0.34

>  <TG_uM>
0.036

>  <RL_uM>
0.11

$$$$
20-5E
 Wcorina  11170919323D 1   1.00000     0.00000              
CORINA evaluation license 3.46 0067  05.08.2008
 41 43  0  0  0  0  0  0  0  0999 V2000
   -0.0169    1.3968    0.0097 C   0  0  0  0  0  0
    0.0021   -0.0041    0.0020 C   0  0  0  0  0  0
    1.1691   -0.6368   -0.0079 N   0  0  0  0  0  0
    2.3032    0.0479   -0.0100 C   0  0  0  0  0  0
    2.3130    1.3705   -0.0047 N   0  0  0  0  0  0
    1.1801    2.0692    0.0019 C   0  0  0  0  0  0
    1.2662    3.5714   -0.0069 C   0  0  0  0  0  0
   -0.0610    4.1857    0.4357 C   0  0  0  0  0  0
   -1.1879    3.5580   -0.3929 C   0  0  0  0  0  0
   -1.3464    2.0989    0.0329 C   0  0  0  0  0  0
   -2.4945    4.3125   -0.1391 C   0  0  0  0  0  0
   -3.5706    3.7726   -1.0454 C   0  0  0  0  0  0
   -4.3646    2.7229   -0.6250 C   0  0  0  0  0  0
   -5.3549    2.2263   -1.4598 C   0  0  0  0  0  0
   -5.5455    2.7855   -2.7152 C   0  0  0  0  0  0
   -4.7492    3.8347   -3.1308 C   0  0  0  0  0  0
   -3.7663    4.3316   -2.2945 C   0  0  0  0  0  0
   -6.1369    1.1936   -1.0487 O   0  0  0  0  0  0
   -7.1365    0.7339   -1.9606 C   0  0  0  0  0  0
    3.5059   -0.6368   -0.0175 N   0  0  0  0  0  0
   -1.1834   -0.7208    0.0051 N   0  0  0  0  0  0
    2.0557    3.8911    0.6733 H   0  0  0  0  0  0
    1.5029    3.9129   -1.0146 H   0  0  0  0  0  0
   -0.2255    3.9793    1.4933 H   0  0  0  0  0  0
   -0.0399    5.2626    0.2688 H   0  0  0  0  0  0
   -0.9339    3.6050   -1.4518 H   0  0  0  0  0  0
   -2.0311    1.5965   -0.6503 H   0  0  0  0  0  0
   -1.7565    2.0605    1.0421 H   0  0  0  0  0  0
   -2.7946    4.1800    0.9004 H   0  0  0  0  0  0
   -2.3468    5.3732   -0.3422 H   0  0  0  0  0  0
   -4.2140    2.2891    0.3525 H   0  0  0  0  0  0
   -6.3157    2.4004   -3.3671 H   0  0  0  0  0  0
   -4.8969    4.2700   -4.1081 H   0  0  0  0  0  0
   -3.1477    5.1552   -2.6194 H   0  0  0  0  0  0
   -7.8235    1.5491   -2.1878 H   0  0  0  0  0  0
   -6.6605    0.3930   -2.8799 H   0  0  0  0  0  0
   -7.6881   -0.0910   -1.5095 H   0  0  0  0  0  0
    3.5117   -1.6068   -0.0211 H   0  0  0  0  0  0
    4.3430   -0.1467   -0.0191 H   0  0  0  0  0  0
   -2.0330   -0.2529    0.0127 H   0  0  0  0  0  0
   -1.1638   -1.6906   -0.0002 H   0  0  0  0  0  0
  1  2  1  0  0  0
  1  6  2  0  0  0
  1 10  1  0  0  0
  2  3  2  0  0  0
  2 21  1  0  0  0
  3  4  1  0  0  0
  4  5  2  0  0  0
  4 20  1  0  0  0
  5  6  1  0  0  0
  6  7  1  0  0  0
  7  8  1  0  0  0
  7 22  1  0  0  0
  7 23  1  0  0  0
  8  9  1  0  0  0
  8 24  1  0  0  0
  8 25  1  0  0  0
  9 10  1  0  0  0
  9 11  1  0  0  0
  9 26  1  0  0  0
 10 27  1  0  0  0
 10 28  1  0  0  0
 11 12  1  0  0  0
 11 29  1  0  0  0
 11 30  1  0  0  0
 12 13  1  0  0  0
 12 17  2  0  0  0
 13 14  2  0  0  0
 13 31  1  0  0  0
 14 15  1  0  0  0
 14 18  1  0  0  0
 15 16  2  0  0  0
 15 32  1  0  0  0
 16 17  1  0  0  0
 16 33  1  0  0  0
 17 34  1  0  0  0
 18 19  1  0  0  0
 19 35  1  0  0  0
 19 36  1  0  0  0
 19 37  1  0  0  0
 20 38  1  0  0  0
 20 39  1  0  0  0
 21 40  1  0  0  0
 21 41  1  0  0  0
M  END
>  <Activity>
6.95861

>  <set_rl>
1

>  <Min_dist>
999.9

>  <Avg_dist>
999.9

>  <PC_uM>
0.27

>  <TG_uM>
0.021

>  <RL_uM>
0.11

$$$$
20-5F
 Wcorina  11170919323D 1   1.00000     0.00000              
CORINA evaluation license 3.46 0067  05.08.2008
 41 43  0  0  0  0  0  0  0  0999 V2000
   -0.0169    1.3968    0.0097 C   0  0  0  0  0  0
    0.0021   -0.0041    0.0020 C   0  0  0  0  0  0
    1.1691   -0.6368   -0.0079 N   0  0  0  0  0  0
    2.3032    0.0479   -0.0100 C   0  0  0  0  0  0
    2.3130    1.3705   -0.0047 N   0  0  0  0  0  0
    1.1801    2.0692    0.0019 C   0  0  0  0  0  0
    1.2662    3.5714   -0.0069 C   0  0  0  0  0  0
   -0.0610    4.1857    0.4357 C   0  0  0  0  0  0
   -1.1879    3.5580   -0.3929 C   0  0  0  0  0  0
   -1.3464    2.0989    0.0329 C   0  0  0  0  0  0
   -2.4945    4.3125   -0.1391 C   0  0  0  0  0  0
   -3.5706    3.7726   -1.0454 C   0  0  0  0  0  0
   -4.3648    2.7221   -0.6241 C   0  0  0  0  0  0
   -5.3520    2.2253   -1.4531 C   0  0  0  0  0  0
   -5.5461    2.7814   -2.7092 C   0  0  0  0  0  0
   -4.7478    3.8353   -3.1296 C   0  0  0  0  0  0
   -3.7658    4.3322   -2.2946 C   0  0  0  0  0  0
   -6.5162    2.2941   -3.5267 O   0  0  0  0  0  0
   -6.6592    2.9153   -4.8057 C   0  0  0  0  0  0
    3.5059   -0.6368   -0.0175 N   0  0  0  0  0  0
   -1.1834   -0.7208    0.0051 N   0  0  0  0  0  0
    2.0557    3.8911    0.6733 H   0  0  0  0  0  0
    1.5029    3.9129   -1.0146 H   0  0  0  0  0  0
   -0.2255    3.9793    1.4933 H   0  0  0  0  0  0
   -0.0399    5.2626    0.2688 H   0  0  0  0  0  0
   -0.9339    3.6050   -1.4518 H   0  0  0  0  0  0
   -2.0311    1.5965   -0.6503 H   0  0  0  0  0  0
   -1.7565    2.0605    1.0421 H   0  0  0  0  0  0
   -2.7946    4.1800    0.9004 H   0  0  0  0  0  0
   -2.3468    5.3732   -0.3422 H   0  0  0  0  0  0
   -4.2131    2.2894    0.3537 H   0  0  0  0  0  0
   -5.9719    1.4046   -1.1237 H   0  0  0  0  0  0
   -4.8970    4.2698   -4.1070 H   0  0  0  0  0  0
   -3.1473    5.1557   -2.6195 H   0  0  0  0  0  0
   -5.7284    2.8157   -5.3641 H   0  0  0  0  0  0
   -7.4665    2.4321   -5.3560 H   0  0  0  0  0  0
   -6.8918    3.9718   -4.6725 H   0  0  0  0  0  0
    3.5117   -1.6068   -0.0211 H   0  0  0  0  0  0
    4.3430   -0.1467   -0.0191 H   0  0  0  0  0  0
   -2.0330   -0.2529    0.0127 H   0  0  0  0  0  0
   -1.1638   -1.6906   -0.0002 H   0  0  0  0  0  0
  1  2  1  0  0  0
  1  6  2  0  0  0
  1 10  1  0  0  0
  2  3  2  0  0  0
  2 21  1  0  0  0
  3  4  1  0  0  0
  4  5  2  0  0  0
  4 20  1  0  0  0
  5  6  1  0  0  0
  6  7  1  0  0  0
  7  8  1  0  0  0
  7 22  1  0  0  0
  7 23  1  0  0  0
  8  9  1  0  0  0
  8 24  1  0  0  0
  8 25  1  0  0  0
  9 10  1  0  0  0
  9 11  1  0  0  0
  9 26  1  0  0  0
 10 27  1  0  0  0
 10 28  1  0  0  0
 11 12  1  0  0  0
 11 29  1  0  0  0
 11 30  1  0  0  0
 12 13  1  0  0  0
 12 17  2  0  0  0
 13 14  2  0  0  0
 13 31  1  0  0  0
 14 15  1  0  0  0
 14 32  1  0  0  0
 15 16  2  0  0  0
 15 18  1  0  0  0
 16 17  1  0  0  0
 16 33  1  0  0  0
 17 34  1  0  0  0
 18 19  1  0  0  0
 19 35  1  0  0  0
 19 36  1  0  0  0
 19 37  1  0  0  0
 20 38  1  0  0  0
 20 39  1  0  0  0
 21 40  1  0  0  0
 21 41  1  0  0  0
M  END
>  <Activity>
7.11351

>  <set_rl>
1

>  <Min_dist>
999.9

>  <Avg_dist>
999.9

>  <PC_uM>
0.44

>  <TG_uM>
0.05

>  <RL_uM>
0.077

$$$$
20-5G
 Wcorina  11170919323D 1   1.00000     0.00000              
CORINA evaluation license 3.46 0067  05.08.2008
 40 42  0  0  0  0  0  0  0  0999 V2000
   -0.0169    1.3968    0.0097 C   0  0  0  0  0  0
    0.0021   -0.0041    0.0020 C   0  0  0  0  0  0
    1.1691   -0.6368   -0.0079 N   0  0  0  0  0  0
    2.3032    0.0479   -0.0100 C   0  0  0  0  0  0
    2.3130    1.3705   -0.0047 N   0  0  0  0  0  0
    1.1801    2.0692    0.0019 C   0  0  0  0  0  0
    1.2662    3.5714   -0.0069 C   0  0  0  0  0  0
   -0.0610    4.1857    0.4357 C   0  0  0  0  0  0
   -1.1879    3.5580   -0.3929 C   0  0  0  0  0  0
   -1.3464    2.0989    0.0329 C   0  0  0  0  0  0
   -2.4945    4.3125   -0.1391 C   0  0  0  0  0  0
   -3.5706    3.7726   -1.0454 C   0  0  0  0  0  0
   -4.3654    2.7222   -0.6254 C   0  0  0  0  0  0
   -5.3524    2.2270   -1.4566 C   0  0  0  0  0  0
   -5.5451    2.7822   -2.7080 C   0  0  0  0  0  0
   -4.7511    3.8328   -3.1276 C   0  0  0  0  0  0
   -3.7667    4.3311   -2.2944 C   0  0  0  0  0  0
   -6.2181    1.0814   -0.9991 C   0  0  0  0  0  0
   -7.3479    1.5833   -0.3443 F   0  0  0  0  0  0
   -6.6180    0.3274   -2.1076 F   0  0  0  0  0  0
   -5.4920    0.2701   -0.1206 F   0  0  0  0  0  0
    3.5059   -0.6368   -0.0175 N   0  0  0  0  0  0
   -1.1834   -0.7208    0.0051 N   0  0  0  0  0  0
    2.0557    3.8911    0.6733 H   0  0  0  0  0  0
    1.5029    3.9129   -1.0146 H   0  0  0  0  0  0
   -0.2255    3.9793    1.4933 H   0  0  0  0  0  0
   -0.0399    5.2626    0.2688 H   0  0  0  0  0  0
   -0.9339    3.6050   -1.4518 H   0  0  0  0  0  0
   -2.0311    1.5965   -0.6503 H   0  0  0  0  0  0
   -1.7565    2.0605    1.0421 H   0  0  0  0  0  0
   -2.7946    4.1800    0.9004 H   0  0  0  0  0  0
   -2.3468    5.3732   -0.3422 H   0  0  0  0  0  0
   -4.2149    2.2885    0.3522 H   0  0  0  0  0  0
   -6.3158    2.3948   -3.3579 H   0  0  0  0  0  0
   -4.9014    4.2664   -4.1053 H   0  0  0  0  0  0
   -3.1488    5.1545   -2.6208 H   0  0  0  0  0  0
    3.5117   -1.6068   -0.0211 H   0  0  0  0  0  0
    4.3430   -0.1467   -0.0191 H   0  0  0  0  0  0
   -2.0330   -0.2529    0.0127 H   0  0  0  0  0  0
   -1.1638   -1.6906   -0.0002 H   0  0  0  0  0  0
  1  2  1  0  0  0
  1  6  2  0  0  0
  1 10  1  0  0  0
  2  3  2  0  0  0
  2 23  1  0  0  0
  3  4  1  0  0  0
  4  5  2  0  0  0
  4 22  1  0  0  0
  5  6  1  0  0  0
  6  7  1  0  0  0
  7  8  1  0  0  0
  7 24  1  0  0  0
  7 25  1  0  0  0
  8  9  1  0  0  0
  8 26  1  0  0  0
  8 27  1  0  0  0
  9 10  1  0  0  0
  9 11  1  0  0  0
  9 28  1  0  0  0
 10 29  1  0  0  0
 10 30  1  0  0  0
 11 12  1  0  0  0
 11 31  1  0  0  0
 11 32  1  0  0  0
 12 13  1  0  0  0
 12 17  2  0  0  0
 13 14  2  0  0  0
 13 33  1  0  0  0
 14 15  1  0  0  0
 14 18  1  0  0  0
 15 16  2  0  0  0
 15 34  1  0  0  0
 16 17  1  0  0  0
 16 35  1  0  0  0
 17 36  1  0  0  0
 18 19  1  0  0  0
 18 20  1  0  0  0
 18 21  1  0  0  0
 22 37  1  0  0  0
 22 38  1  0  0  0
 23 39  1  0  0  0
 23 40  1  0  0  0
M  END
>  <Activity>
6.72125

>  <set_rl>
1

>  <Min_dist>
999.9

>  <Avg_dist>
999.9

>  <PC_uM>
0.4

>  <TG_uM>
0.14

>  <RL_uM>
0.19

$$$$
20-5I
 Wcorina  11170919323D 1   1.00000     0.00000              
CORINA evaluation license 3.46 0067  05.08.2008
 41 43  0  0  0  0  0  0  0  0999 V2000
   -0.0169    1.3968    0.0097 C   0  0  0  0  0  0
    0.0021   -0.0041    0.0020 C   0  0  0  0  0  0
    1.1691   -0.6368   -0.0079 N   0  0  0  0  0  0
    2.3032    0.0479   -0.0100 C   0  0  0  0  0  0
    2.3130    1.3705   -0.0047 N   0  0  0  0  0  0
    1.1801    2.0692    0.0019 C   0  0  0  0  0  0
    1.2662    3.5714   -0.0069 C   0  0  0  0  0  0
   -0.0610    4.1857    0.4357 C   0  0  0  0  0  0
   -1.1879    3.5580   -0.3929 C   0  0  0  0  0  0
   -1.3464    2.0989    0.0329 C   0  0  0  0  0  0
   -2.4945    4.3125   -0.1391 C   0  0  0  0  0  0
   -3.5706    3.7726   -1.0454 C   0  0  0  0  0  0
   -4.3648    2.7221   -0.6241 C   0  0  0  0  0  0
   -5.3520    2.2253   -1.4531 C   0  0  0  0  0  0
   -5.5461    2.7814   -2.7092 C   0  0  0  0  0  0
   -4.7478    3.8353   -3.1296 C   0  0  0  0  0  0
   -3.7658    4.3322   -2.2946 C   0  0  0  0  0  0
   -6.5162    2.2941   -3.5267 O   0  0  0  0  0  0
   -6.6592    2.9153   -4.8057 C   0  0  0  0  0  0
   -5.4645    2.7874   -5.5224 F   0  0  0  0  0  0
   -7.6954    2.2951   -5.5120 F   0  0  0  0  0  0
   -6.9577    4.2713   -4.6348 F   0  0  0  0  0  0
    3.5059   -0.6368   -0.0175 N   0  0  0  0  0  0
   -1.1834   -0.7208    0.0051 N   0  0  0  0  0  0
    2.0557    3.8911    0.6733 H   0  0  0  0  0  0
    1.5029    3.9129   -1.0146 H   0  0  0  0  0  0
   -0.2255    3.9793    1.4933 H   0  0  0  0  0  0
   -0.0399    5.2626    0.2688 H   0  0  0  0  0  0
   -0.9339    3.6050   -1.4518 H   0  0  0  0  0  0
   -2.0311    1.5965   -0.6503 H   0  0  0  0  0  0
   -1.7565    2.0605    1.0421 H   0  0  0  0  0  0
   -2.7946    4.1800    0.9004 H   0  0  0  0  0  0
   -2.3468    5.3732   -0.3422 H   0  0  0  0  0  0
   -4.2131    2.2894    0.3537 H   0  0  0  0  0  0
   -5.9719    1.4046   -1.1237 H   0  0  0  0  0  0
   -4.8970    4.2698   -4.1070 H   0  0  0  0  0  0
   -3.1473    5.1557   -2.6195 H   0  0  0  0  0  0
    3.5117   -1.6068   -0.0211 H   0  0  0  0  0  0
    4.3430   -0.1467   -0.0191 H   0  0  0  0  0  0
   -2.0330   -0.2529    0.0127 H   0  0  0  0  0  0
   -1.1638   -1.6906   -0.0002 H   0  0  0  0  0  0
  1  2  1  0  0  0
  1  6  2  0  0  0
  1 10  1  0  0  0
  2  3  2  0  0  0
  2 24  1  0  0  0
  3  4  1  0  0  0
  4  5  2  0  0  0
  4 23  1  0  0  0
  5  6  1  0  0  0
  6  7  1  0  0  0
  7  8  1  0  0  0
  7 25  1  0  0  0
  7 26  1  0  0  0
  8  9  1  0  0  0
  8 27  1  0  0  0
  8 28  1  0  0  0
  9 10  1  0  0  0
  9 11  1  0  0  0
  9 29  1  0  0  0
 10 30  1  0  0  0
 10 31  1  0  0  0
 11 12  1  0  0  0
 11 32  1  0  0  0
 11 33  1  0  0  0
 12 13  1  0  0  0
 12 17  2  0  0  0
 13 14  2  0  0  0
 13 34  1  0  0  0
 14 15  1  0  0  0
 14 35  1  0  0  0
 15 16  2  0  0  0
 15 18  1  0  0  0
 16 17  1  0  0  0
 16 36  1  0  0  0
 17 37  1  0  0  0
 18 19  1  0  0  0
 19 20  1  0  0  0
 19 21  1  0  0  0
 19 22  1  0  0  0
 23 38  1  0  0  0
 23 39  1  0  0  0
 24 40  1  0  0  0
 24 41  1  0  0  0
M  END
>  <Activity>
6.76955

>  <set_rl>
1

>  <Min_dist>
999.9

>  <Avg_dist>
999.9

>  <PC_uM>
0.58

>  <TG_uM>
0.073

>  <RL_uM>
0.17

$$$$
20-5J
 Wcorina  11170919323D 1   1.00000     0.00000              
CORINA evaluation license 3.46 0067  05.08.2008
 45 47  0  0  0  0  0  0  0  0999 V2000
   -0.0169    1.3968    0.0097 C   0  0  0  0  0  0
    0.0021   -0.0041    0.0020 C   0  0  0  0  0  0
    1.1691   -0.6368   -0.0079 N   0  0  0  0  0  0
    2.3032    0.0479   -0.0100 C   0  0  0  0  0  0
    2.3130    1.3705   -0.0047 N   0  0  0  0  0  0
    1.1801    2.0692    0.0019 C   0  0  0  0  0  0
    1.2662    3.5714   -0.0069 C   0  0  0  0  0  0
   -0.0610    4.1857    0.4357 C   0  0  0  0  0  0
   -1.1879    3.5580   -0.3929 C   0  0  0  0  0  0
   -1.3464    2.0989    0.0329 C   0  0  0  0  0  0
   -2.4945    4.3125   -0.1391 C   0  0  0  0  0  0
   -3.5706    3.7726   -1.0454 C   0  0  0  0  0  0
   -4.2985    2.6537   -0.6678 C   0  0  0  0  0  0
   -5.2891    2.1571   -1.5016 C   0  0  0  0  0  0
   -5.5513    2.7770   -2.7081 C   0  0  0  0  0  0
   -4.8239    3.8957   -3.0854 C   0  0  0  0  0  0
   -3.8360    4.3950   -2.2494 C   0  0  0  0  0  0
   -5.0820    4.5058   -4.2730 O   0  0  0  0  0  0
   -6.1158    3.9406   -5.0816 C   0  0  0  0  0  0
   -4.0405    2.0436    0.5198 O   0  0  0  0  0  0
   -4.8284    0.8966    0.8445 C   0  0  0  0  0  0
    3.5059   -0.6368   -0.0175 N   0  0  0  0  0  0
   -1.1834   -0.7208    0.0051 N   0  0  0  0  0  0
    2.0557    3.8911    0.6733 H   0  0  0  0  0  0
    1.5029    3.9129   -1.0146 H   0  0  0  0  0  0
   -0.2255    3.9793    1.4933 H   0  0  0  0  0  0
   -0.0399    5.2626    0.2688 H   0  0  0  0  0  0
   -0.9339    3.6050   -1.4518 H   0  0  0  0  0  0
   -2.0311    1.5965   -0.6503 H   0  0  0  0  0  0
   -1.7565    2.0605    1.0421 H   0  0  0  0  0  0
   -2.7946    4.1800    0.9004 H   0  0  0  0  0  0
   -2.3468    5.3732   -0.3422 H   0  0  0  0  0  0
   -5.8554    1.2856   -1.2080 H   0  0  0  0  0  0
   -6.3226    2.3900   -3.3577 H   0  0  0  0  0  0
   -3.2723    5.2688   -2.5413 H   0  0  0  0  0  0
   -6.2187    4.5215   -5.9981 H   0  0  0  0  0  0
   -5.8600    2.9108   -5.3308 H   0  0  0  0  0  0
   -7.0572    3.9584   -4.5325 H   0  0  0  0  0  0
   -5.8809    1.1775    0.8822 H   0  0  0  0  0  0
   -4.6841    0.1294    0.0837 H   0  0  0  0  0  0
   -4.5211    0.5078    1.8154 H   0  0  0  0  0  0
    3.5117   -1.6068   -0.0211 H   0  0  0  0  0  0
    4.3430   -0.1467   -0.0191 H   0  0  0  0  0  0
   -2.0330   -0.2529    0.0127 H   0  0  0  0  0  0
   -1.1638   -1.6906   -0.0002 H   0  0  0  0  0  0
  1  2  1  0  0  0
  1  6  2  0  0  0
  1 10  1  0  0  0
  2  3  2  0  0  0
  2 23  1  0  0  0
  3  4  1  0  0  0
  4  5  2  0  0  0
  4 22  1  0  0  0
  5  6  1  0  0  0
  6  7  1  0  0  0
  7  8  1  0  0  0
  7 24  1  0  0  0
  7 25  1  0  0  0
  8  9  1  0  0  0
  8 26  1  0  0  0
  8 27  1  0  0  0
  9 10  1  0  0  0
  9 11  1  0  0  0
  9 28  1  0  0  0
 10 29  1  0  0  0
 10 30  1  0  0  0
 11 12  1  0  0  0
 11 31  1  0  0  0
 11 32  1  0  0  0
 12 13  1  0  0  0
 12 17  2  0  0  0
 13 14  2  0  0  0
 13 20  1  0  0  0
 14 15  1  0  0  0
 14 33  1  0  0  0
 15 16  2  0  0  0
 15 34  1  0  0  0
 16 17  1  0  0  0
 16 18  1  0  0  0
 17 35  1  0  0  0
 18 19  1  0  0  0
 19 36  1  0  0  0
 19 37  1  0  0  0
 19 38  1  0  0  0
 20 21  1  0  0  0
 21 39  1  0  0  0
 21 40  1  0  0  0
 21 41  1  0  0  0
 22 42  1  0  0  0
 22 43  1  0  0  0
 23 44  1  0  0  0
 23 45  1  0  0  0
M  END
>  <Activity>
7.46852

>  <set_rl>
1

>  <Min_dist>
999.9

>  <Avg_dist>
999.9

>  <PC_uM>
0.057

>  <TG_uM>
0.021

>  <RL_uM>
0.034

$$$$
20-5K
 Wcorina  11170919323D 1   1.00000     0.00000              
CORINA evaluation license 3.46 0067  05.08.2008
 45 47  0  0  0  0  0  0  0  0999 V2000
   -0.0169    1.3968    0.0097 C   0  0  0  0  0  0
    0.0021   -0.0041    0.0020 C   0  0  0  0  0  0
    1.1691   -0.6368   -0.0079 N   0  0  0  0  0  0
    2.3032    0.0479   -0.0100 C   0  0  0  0  0  0
    2.3130    1.3705   -0.0047 N   0  0  0  0  0  0
    1.1801    2.0692    0.0019 C   0  0  0  0  0  0
    1.2662    3.5714   -0.0069 C   0  0  0  0  0  0
   -0.0610    4.1857    0.4357 C   0  0  0  0  0  0
   -1.1879    3.5580   -0.3929 C   0  0  0  0  0  0
   -1.3464    2.0989    0.0329 C   0  0  0  0  0  0
   -2.4945    4.3125   -0.1391 C   0  0  0  0  0  0
   -3.5706    3.7726   -1.0454 C   0  0  0  0  0  0
   -4.3647    2.7219   -0.6237 C   0  0  0  0  0  0
   -5.3543    2.2244   -1.4556 C   0  0  0  0  0  0
   -5.5468    2.7843   -2.7154 C   0  0  0  0  0  0
   -4.7478    3.8366   -3.1316 C   0  0  0  0  0  0
   -3.7654    4.3322   -2.2940 C   0  0  0  0  0  0
   -6.5167    2.2991   -3.5359 O   0  0  0  0  0  0
   -6.6570    2.9225   -4.8140 C   0  0  0  0  0  0
   -6.1359    1.1910   -1.0426 O   0  0  0  0  0  0
   -5.8813    0.6661    0.2619 C   0  0  0  0  0  0
    3.5059   -0.6368   -0.0175 N   0  0  0  0  0  0
   -1.1834   -0.7208    0.0051 N   0  0  0  0  0  0
    2.0557    3.8911    0.6733 H   0  0  0  0  0  0
    1.5029    3.9129   -1.0146 H   0  0  0  0  0  0
   -0.2255    3.9793    1.4933 H   0  0  0  0  0  0
   -0.0399    5.2626    0.2688 H   0  0  0  0  0  0
   -0.9339    3.6050   -1.4518 H   0  0  0  0  0  0
   -2.0311    1.5965   -0.6503 H   0  0  0  0  0  0
   -1.7565    2.0605    1.0421 H   0  0  0  0  0  0
   -2.7946    4.1800    0.9004 H   0  0  0  0  0  0
   -2.3468    5.3732   -0.3422 H   0  0  0  0  0  0
   -4.2132    2.2891    0.3541 H   0  0  0  0  0  0
   -4.8950    4.2728   -4.1086 H   0  0  0  0  0  0
   -3.1460    5.1555   -2.6180 H   0  0  0  0  0  0
   -5.7253    2.8229   -5.3710 H   0  0  0  0  0  0
   -7.4638    2.4411   -5.3665 H   0  0  0  0  0  0
   -6.8887    3.9791   -4.6795 H   0  0  0  0  0  0
   -4.8570    0.2967    0.3114 H   0  0  0  0  0  0
   -6.0200    1.4528    1.0035 H   0  0  0  0  0  0
   -6.5727   -0.1515    0.4659 H   0  0  0  0  0  0
    3.5117   -1.6068   -0.0211 H   0  0  0  0  0  0
    4.3430   -0.1467   -0.0191 H   0  0  0  0  0  0
   -2.0330   -0.2529    0.0127 H   0  0  0  0  0  0
   -1.1638   -1.6906   -0.0002 H   0  0  0  0  0  0
  1  2  1  0  0  0
  1  6  2  0  0  0
  1 10  1  0  0  0
  2  3  2  0  0  0
  2 23  1  0  0  0
  3  4  1  0  0  0
  4  5  2  0  0  0
  4 22  1  0  0  0
  5  6  1  0  0  0
  6  7  1  0  0  0
  7  8  1  0  0  0
  7 24  1  0  0  0
  7 25  1  0  0  0
  8  9  1  0  0  0
  8 26  1  0  0  0
  8 27  1  0  0  0
  9 10  1  0  0  0
  9 11  1  0  0  0
  9 28  1  0  0  0
 10 29  1  0  0  0
 10 30  1  0  0  0
 11 12  1  0  0  0
 11 31  1  0  0  0
 11 32  1  0  0  0
 12 13  1  0  0  0
 12 17  2  0  0  0
 13 14  2  0  0  0
 13 33  1  0  0  0
 14 15  1  0  0  0
 14 20  1  0  0  0
 15 16  2  0  0  0
 15 18  1  0  0  0
 16 17  1  0  0  0
 16 34  1  0  0  0
 17 35  1  0  0  0
 18 19  1  0  0  0
 19 36  1  0  0  0
 19 37  1  0  0  0
 19 38  1  0  0  0
 20 21  1  0  0  0
 21 39  1  0  0  0
 21 40  1  0  0  0
 21 41  1  0  0  0
 22 42  1  0  0  0
 22 43  1  0  0  0
 23 44  1  0  0  0
 23 45  1  0  0  0
M  END
>  <Activity>
7.20066

>  <set_rl>
1

>  <Min_dist>
999.9

>  <Avg_dist>
999.9

>  <PC_uM>
0.1

>  <TG_uM>
0.023

>  <RL_uM>
0.063

$$$$
19-8
 Wcorina  11170919323D 1   1.00000     0.00000              
CORINA evaluation license 3.46 0067  05.08.2008
 56 58  0  0  0  0  0  0  0  0999 V2000
   -0.0169    1.3968    0.0097 C   0  0  0  0  0  0
    0.0021   -0.0041    0.0020 C   0  0  0  0  0  0
    1.1691   -0.6368   -0.0079 N   0  0  0  0  0  0
    2.3032    0.0479   -0.0100 C   0  0  0  0  0  0
    2.3130    1.3705   -0.0047 N   0  0  0  0  0  0
    1.1801    2.0692    0.0019 C   0  0  0  0  0  0
    1.2662    3.5714   -0.0069 C   0  0  0  0  0  0
   -0.0610    4.1857    0.4357 C   0  0  0  0  0  0
   -1.1879    3.5580   -0.3929 C   0  0  0  0  0  0
   -1.3464    2.0989    0.0329 C   0  0  0  0  0  0
   -2.4945    4.3125   -0.1391 C   0  0  0  0  0  0
   -3.5435    3.7862   -1.0226 N   0  0  0  0  0  0
   -4.7993    4.2904   -0.6658 C   0  0  0  0  0  0
   -5.0308    5.6578   -0.6879 C   0  0  0  0  0  0
   -6.2760    6.1544   -0.3344 C   0  0  0  0  0  0
   -7.2893    5.2850    0.0413 C   0  0  0  0  0  0
   -7.0607    3.9215    0.0645 C   0  0  0  0  0  0
   -5.8208    3.4197   -0.2935 C   0  0  0  0  0  0
   -5.5986    2.0771   -0.2763 O   0  0  0  0  0  0
   -6.6913    1.2437    0.1157 C   0  0  0  0  0  0
   -6.2550   -0.2222    0.0745 C   0  0  0  0  0  0
   -6.5040    7.4947   -0.3557 O   0  0  0  0  0  0
   -7.8098    7.9367    0.0203 C   0  0  0  0  0  0
   -7.8757    9.4630   -0.0642 C   0  0  0  0  0  0
   -3.2404    4.0760   -2.4304 C   0  0  0  0  0  0
    3.5059   -0.6368   -0.0175 N   0  0  0  0  0  0
   -1.1834   -0.7208    0.0051 N   0  0  0  0  0  0
    2.0557    3.8911    0.6733 H   0  0  0  0  0  0
    1.5029    3.9129   -1.0146 H   0  0  0  0  0  0
   -0.2255    3.9793    1.4933 H   0  0  0  0  0  0
   -0.0399    5.2626    0.2688 H   0  0  0  0  0  0
   -0.9339    3.6050   -1.4518 H   0  0  0  0  0  0
   -2.0311    1.5965   -0.6503 H   0  0  0  0  0  0
   -1.7565    2.0605    1.0421 H   0  0  0  0  0  0
   -2.7946    4.1800    0.9004 H   0  0  0  0  0  0
   -2.3468    5.3732   -0.3422 H   0  0  0  0  0  0
   -4.2417    6.3350   -0.9798 H   0  0  0  0  0  0
   -8.2586    5.6737    0.3167 H   0  0  0  0  0  0
   -7.8515    3.2469    0.3578 H   0  0  0  0  0  0
   -7.0005    1.5024    1.1284 H   0  0  0  0  0  0
   -7.5263    1.3936   -0.5687 H   0  0  0  0  0  0
   -7.0884   -0.8579    0.3735 H   0  0  0  0  0  0
   -5.9458   -0.4809   -0.9382 H   0  0  0  0  0  0
   -5.4200   -0.3721    0.7589 H   0  0  0  0  0  0
   -8.5484    7.5033   -0.6540 H   0  0  0  0  0  0
   -8.0205    7.6200    1.0418 H   0  0  0  0  0  0
   -8.8717    9.8001    0.2226 H   0  0  0  0  0  0
   -7.1371    9.8964    0.6102 H   0  0  0  0  0  0
   -7.6651    9.7797   -1.0857 H   0  0  0  0  0  0
   -2.2912    3.6130   -2.7005 H   0  0  0  0  0  0
   -4.0328    3.6754   -3.0626 H   0  0  0  0  0  0
   -3.1721    5.1545   -2.5729 H   0  0  0  0  0  0
    3.5117   -1.6068   -0.0211 H   0  0  0  0  0  0
    4.3430   -0.1467   -0.0191 H   0  0  0  0  0  0
   -2.0330   -0.2529    0.0127 H   0  0  0  0  0  0
   -1.1638   -1.6906   -0.0002 H   0  0  0  0  0  0
  1  2  1  0  0  0
  1  6  2  0  0  0
  1 10  1  0  0  0
  2  3  2  0  0  0
  2 27  1  0  0  0
  3  4  1  0  0  0
  4  5  2  0  0  0
  4 26  1  0  0  0
  5  6  1  0  0  0
  6  7  1  0  0  0
  7  8  1  0  0  0
  7 28  1  0  0  0
  7 29  1  0  0  0
  8  9  1  0  0  0
  8 30  1  0  0  0
  8 31  1  0  0  0
  9 10  1  0  0  0
  9 11  1  0  0  0
  9 32  1  0  0  0
 10 33  1  0  0  0
 10 34  1  0  0  0
 11 12  1  0  0  0
 11 35  1  0  0  0
 11 36  1  0  0  0
 12 13  1  0  0  0
 12 25  1  0  0  0
 13 14  1  0  0  0
 13 18  2  0  0  0
 14 15  2  0  0  0
 14 37  1  0  0  0
 15 16  1  0  0  0
 15 22  1  0  0  0
 16 17  2  0  0  0
 16 38  1  0  0  0
 17 18  1  0  0  0
 17 39  1  0  0  0
 18 19  1  0  0  0
 19 20  1  0  0  0
 20 21  1  0  0  0
 20 40  1  0  0  0
 20 41  1  0  0  0
 21 42  1  0  0  0
 21 43  1  0  0  0
 21 44  1  0  0  0
 22 23  1  0  0  0
 23 24  1  0  0  0
 23 45  1  0  0  0
 23 46  1  0  0  0
 24 47  1  0  0  0
 24 48  1  0  0  0
 24 49  1  0  0  0
 25 50  1  0  0  0
 25 51  1  0  0  0
 25 52  1  0  0  0
 26 53  1  0  0  0
 26 54  1  0  0  0
 27 55  1  0  0  0
 27 56  1  0  0  0
M  END
>  <Activity>
6.93554

>  <set_rl>
1

>  <Min_dist>
999.9

>  <Avg_dist>
999.9

>  <PC_uM>
0.319

>  <TG_uM>
0.017

>  <RL_uM>
0.116

$$$$
19-11
 Wcorina  11170919323D 1   1.00000     0.00000              
CORINA evaluation license 3.46 0067  05.08.2008
 39 41  0  0  0  0  0  0  0  0999 V2000
   -0.0169    1.3968    0.0097 C   0  0  0  0  0  0
    0.0021   -0.0041    0.0020 C   0  0  0  0  0  0
    1.1691   -0.6368   -0.0079 N   0  0  0  0  0  0
    2.3032    0.0479   -0.0100 C   0  0  0  0  0  0
    2.3130    1.3705   -0.0047 N   0  0  0  0  0  0
    1.1801    2.0692    0.0019 C   0  0  0  0  0  0
    1.2662    3.5714   -0.0069 C   0  0  0  0  0  0
   -0.0610    4.1857    0.4357 C   0  0  0  0  0  0
   -1.1879    3.5580   -0.3929 C   0  0  0  0  0  0
   -1.3464    2.0989    0.0329 C   0  0  0  0  0  0
   -2.4945    4.3125   -0.1391 C   0  0  0  0  0  0
   -3.5406    3.7876   -1.0202 N   0  0  0  0  0  0
   -4.8302    4.3236   -0.9701 C   0  0  0  0  0  0
   -5.1217    5.3539   -0.0858 C   0  0  0  0  0  0
   -6.3982    5.8821   -0.0392 C   0  0  0  0  0  0
   -7.3853    5.3850   -0.8723 C   0  0  0  0  0  0
   -7.0982    4.3594   -1.7538 C   0  0  0  0  0  0
   -5.8224    3.8306   -1.8094 C   0  0  0  0  0  0
   -5.4614    2.5473   -2.9214 Cl  0  0  0  0  0  0
   -6.7638    7.1701    1.0660 Cl  0  0  0  0  0  0
    3.5059   -0.6368   -0.0175 N   0  0  0  0  0  0
   -1.1834   -0.7208    0.0051 N   0  0  0  0  0  0
    2.0557    3.8911    0.6733 H   0  0  0  0  0  0
    1.5029    3.9129   -1.0146 H   0  0  0  0  0  0
   -0.2255    3.9793    1.4933 H   0  0  0  0  0  0
   -0.0399    5.2626    0.2688 H   0  0  0  0  0  0
   -0.9339    3.6050   -1.4518 H   0  0  0  0  0  0
   -2.0311    1.5965   -0.6503 H   0  0  0  0  0  0
   -1.7565    2.0605    1.0421 H   0  0  0  0  0  0
   -2.7946    4.1800    0.9004 H   0  0  0  0  0  0
   -2.3468    5.3732   -0.3422 H   0  0  0  0  0  0
   -3.3381    3.0680   -1.6383 H   0  0  0  0  0  0
   -4.3520    5.7417    0.5650 H   0  0  0  0  0  0
   -8.3821    5.7990   -0.8335 H   0  0  0  0  0  0
   -7.8708    3.9734   -2.4024 H   0  0  0  0  0  0
    3.5117   -1.6068   -0.0211 H   0  0  0  0  0  0
    4.3430   -0.1467   -0.0191 H   0  0  0  0  0  0
   -2.0330   -0.2529    0.0127 H   0  0  0  0  0  0
   -1.1638   -1.6906   -0.0002 H   0  0  0  0  0  0
  1  2  1  0  0  0
  1  6  2  0  0  0
  1 10  1  0  0  0
  2  3  2  0  0  0
  2 22  1  0  0  0
  3  4  1  0  0  0
  4  5  2  0  0  0
  4 21  1  0  0  0
  5  6  1  0  0  0
  6  7  1  0  0  0
  7  8  1  0  0  0
  7 23  1  0  0  0
  7 24  1  0  0  0
  8  9  1  0  0  0
  8 25  1  0  0  0
  8 26  1  0  0  0
  9 10  1  0  0  0
  9 11  1  0  0  0
  9 27  1  0  0  0
 10 28  1  0  0  0
 10 29  1  0  0  0
 11 12  1  0  0  0
 11 30  1  0  0  0
 11 31  1  0  0  0
 12 13  1  0  0  0
 12 32  1  0  0  0
 13 14  1  0  0  0
 13 18  2  0  0  0
 14 15  2  0  0  0
 14 33  1  0  0  0
 15 16  1  0  0  0
 15 20  1  0  0  0
 16 17  2  0  0  0
 16 34  1  0  0  0
 17 18  1  0  0  0
 17 35  1  0  0  0
 18 19  1  0  0  0
 21 36  1  0  0  0
 21 37  1  0  0  0
 22 38  1  0  0  0
 22 39  1  0  0  0
M  END
>  <Activity>
6.61979

>  <set_rl>
1

>  <Min_dist>
999.9

>  <Avg_dist>
999.9

>  <PC_uM>
0.41

>  <TG_uM>
0.097

>  <RL_uM>
0.24

$$$$
19-20
 Wcorina  11170919323D 1   1.00000     0.00000              
CORINA evaluation license 3.46 0067  05.08.2008
 48 51  0  0  0  0  0  0  0  0999 V2000
   -0.0169    1.3968    0.0097 C   0  0  0  0  0  0
    0.0021   -0.0041    0.0020 C   0  0  0  0  0  0
    1.1691   -0.6368   -0.0079 N   0  0  0  0  0  0
    2.3032    0.0479   -0.0100 C   0  0  0  0  0  0
    2.3130    1.3705   -0.0047 N   0  0  0  0  0  0
    1.1801    2.0692    0.0019 C   0  0  0  0  0  0
    1.2662    3.5714   -0.0069 C   0  0  0  0  0  0
   -0.0610    4.1857    0.4357 C   0  0  0  0  0  0
   -1.1879    3.5580   -0.3929 C   0  0  0  0  0  0
   -1.3464    2.0989    0.0329 C   0  0  0  0  0  0
   -2.4945    4.3125   -0.1391 C   0  0  0  0  0  0
   -3.5435    3.7862   -1.0226 N   0  0  0  0  0  0
   -4.7936    4.2882   -0.6675 C   0  0  0  0  0  0
   -5.0292    5.6466   -0.6876 C   0  0  0  0  0  0
   -6.2742    6.1579   -0.3347 C   0  0  0  0  0  0
   -7.2921    5.3345    0.0399 C   0  0  0  0  0  0
   -7.0935    3.9439    0.0738 C   0  0  0  0  0  0
   -5.8323    3.4105   -0.2893 C   0  0  0  0  0  0
   -5.6374    2.0208   -0.2611 C   0  0  0  0  0  0
   -6.6621    1.2038    0.1084 C   0  0  0  0  0  0
   -7.9050    1.7269    0.4595 C   0  0  0  0  0  0
   -8.1262    3.0699    0.4560 C   0  0  0  0  0  0
   -3.2404    4.0760   -2.4304 C   0  0  0  0  0  0
    3.5059   -0.6368   -0.0175 N   0  0  0  0  0  0
   -1.1834   -0.7208    0.0051 N   0  0  0  0  0  0
    2.0557    3.8911    0.6733 H   0  0  0  0  0  0
    1.5029    3.9129   -1.0146 H   0  0  0  0  0  0
   -0.2255    3.9793    1.4933 H   0  0  0  0  0  0
   -0.0399    5.2626    0.2688 H   0  0  0  0  0  0
   -0.9339    3.6050   -1.4518 H   0  0  0  0  0  0
   -2.0311    1.5965   -0.6503 H   0  0  0  0  0  0
   -1.7565    2.0605    1.0421 H   0  0  0  0  0  0
   -2.7946    4.1800    0.9004 H   0  0  0  0  0  0
   -2.3468    5.3732   -0.3422 H   0  0  0  0  0  0
   -4.2384    6.3213   -0.9803 H   0  0  0  0  0  0
   -6.4359    7.2255   -0.3578 H   0  0  0  0  0  0
   -8.2513    5.7501    0.3111 H   0  0  0  0  0  0
   -4.6795    1.6016   -0.5314 H   0  0  0  0  0  0
   -6.5094    0.1349    0.1292 H   0  0  0  0  0  0
   -8.7016    1.0573    0.7486 H   0  0  0  0  0  0
   -9.0943    3.4613    0.7316 H   0  0  0  0  0  0
   -2.2912    3.6130   -2.7005 H   0  0  0  0  0  0
   -4.0328    3.6754   -3.0626 H   0  0  0  0  0  0
   -3.1721    5.1545   -2.5729 H   0  0  0  0  0  0
    3.5117   -1.6068   -0.0211 H   0  0  0  0  0  0
    4.3430   -0.1467   -0.0191 H   0  0  0  0  0  0
   -2.0330   -0.2529    0.0127 H   0  0  0  0  0  0
   -1.1638   -1.6906   -0.0002 H   0  0  0  0  0  0
  1  2  1  0  0  0
  1  6  2  0  0  0
  1 10  1  0  0  0
  2  3  2  0  0  0
  2 25  1  0  0  0
  3  4  1  0  0  0
  4  5  2  0  0  0
  4 24  1  0  0  0
  5  6  1  0  0  0
  6  7  1  0  0  0
  7  8  1  0  0  0
  7 26  1  0  0  0
  7 27  1  0  0  0
  8  9  1  0  0  0
  8 28  1  0  0  0
  8 29  1  0  0  0
  9 10  1  0  0  0
  9 11  1  0  0  0
  9 30  1  0  0  0
 10 31  1  0  0  0
 10 32  1  0  0  0
 11 12  1  0  0  0
 11 33  1  0  0  0
 11 34  1  0  0  0
 12 13  1  0  0  0
 12 23  1  0  0  0
 13 14  1  0  0  0
 13 18  2  0  0  0
 14 15  2  0  0  0
 14 35  1  0  0  0
 15 16  1  0  0  0
 15 36  1  0  0  0
 16 17  2  0  0  0
 16 37  1  0  0  0
 17 18  1  0  0  0
 17 22  1  0  0  0
 18 19  1  0  0  0
 19 20  2  0  0  0
 19 38  1  0  0  0
 20 21  1  0  0  0
 20 39  1  0  0  0
 21 22  2  0  0  0
 21 40  1  0  0  0
 22 41  1  0  0  0
 23 42  1  0  0  0
 23 43  1  0  0  0
 23 44  1  0  0  0
 24 45  1  0  0  0
 24 46  1  0  0  0
 25 47  1  0  0  0
 25 48  1  0  0  0
M  END
>  <Activity>
7.3279

>  <set_rl>
1

>  <Min_dist>
999.9

>  <Avg_dist>
999.9

>  <PC_uM>
0.1

>  <TG_uM>
0.023

>  <RL_uM>
0.047

$$$$
20-5D
 Wcorina  11170919323D 1   1.00000     0.00000              
CORINA evaluation license 3.46 0067  05.08.2008
 41 43  0  0  0  0  0  0  0  0999 V2000
   -0.0169    1.3968    0.0097 C   0  0  0  0  0  0
    0.0021   -0.0041    0.0020 C   0  0  0  0  0  0
    1.1691   -0.6368   -0.0079 N   0  0  0  0  0  0
    2.3032    0.0479   -0.0100 C   0  0  0  0  0  0
    2.3130    1.3705   -0.0047 N   0  0  0  0  0  0
    1.1801    2.0692    0.0019 C   0  0  0  0  0  0
    1.2662    3.5714   -0.0069 C   0  0  0  0  0  0
   -0.0610    4.1857    0.4357 C   0  0  0  0  0  0
   -1.1879    3.5580   -0.3929 C   0  0  0  0  0  0
   -1.3464    2.0989    0.0329 C   0  0  0  0  0  0
   -2.4945    4.3125   -0.1391 C   0  0  0  0  0  0
   -3.5706    3.7726   -1.0454 C   0  0  0  0  0  0
   -4.2991    2.6535   -0.6683 C   0  0  0  0  0  0
   -5.2889    2.1589   -1.5048 C   0  0  0  0  0  0
   -5.5471    2.7814   -2.7110 C   0  0  0  0  0  0
   -4.8196    3.8959   -3.0846 C   0  0  0  0  0  0
   -3.8364    4.3946   -2.2497 C   0  0  0  0  0  0
   -4.0429    2.0427    0.5184 O   0  0  0  0  0  0
   -4.8318    0.8958    0.8414 C   0  0  0  0  0  0
    3.5059   -0.6368   -0.0175 N   0  0  0  0  0  0
   -1.1834   -0.7208    0.0051 N   0  0  0  0  0  0
    2.0557    3.8911    0.6733 H   0  0  0  0  0  0
    1.5029    3.9129   -1.0146 H   0  0  0  0  0  0
   -0.2255    3.9793    1.4933 H   0  0  0  0  0  0
   -0.0399    5.2626    0.2688 H   0  0  0  0  0  0
   -0.9339    3.6050   -1.4518 H   0  0  0  0  0  0
   -2.0311    1.5965   -0.6503 H   0  0  0  0  0  0
   -1.7565    2.0605    1.0421 H   0  0  0  0  0  0
   -2.7946    4.1800    0.9004 H   0  0  0  0  0  0
   -2.3468    5.3732   -0.3422 H   0  0  0  0  0  0
   -5.8570    1.2878   -1.2136 H   0  0  0  0  0  0
   -6.3177    2.3967   -3.3626 H   0  0  0  0  0  0
   -5.0224    4.3807   -4.0282 H   0  0  0  0  0  0
   -3.2727    5.2683   -2.5416 H   0  0  0  0  0  0
   -5.8842    1.1774    0.8780 H   0  0  0  0  0  0
   -4.6871    0.1292    0.0802 H   0  0  0  0  0  0
   -4.5260    0.5062    1.8123 H   0  0  0  0  0  0
    3.5117   -1.6068   -0.0211 H   0  0  0  0  0  0
    4.3430   -0.1467   -0.0191 H   0  0  0  0  0  0
   -2.0330   -0.2529    0.0127 H   0  0  0  0  0  0
   -1.1638   -1.6906   -0.0002 H   0  0  0  0  0  0
  1  2  1  0  0  0
  1  6  2  0  0  0
  1 10  1  0  0  0
  2  3  2  0  0  0
  2 21  1  0  0  0
  3  4  1  0  0  0
  4  5  2  0  0  0
  4 20  1  0  0  0
  5  6  1  0  0  0
  6  7  1  0  0  0
  7  8  1  0  0  0
  7 22  1  0  0  0
  7 23  1  0  0  0
  8  9  1  0  0  0
  8 24  1  0  0  0
  8 25  1  0  0  0
  9 10  1  0  0  0
  9 11  1  0  0  0
  9 26  1  0  0  0
 10 27  1  0  0  0
 10 28  1  0  0  0
 11 12  1  0  0  0
 11 29  1  0  0  0
 11 30  1  0  0  0
 12 13  1  0  0  0
 12 17  2  0  0  0
 13 14  2  0  0  0
 13 18  1  0  0  0
 14 15  1  0  0  0
 14 31  1  0  0  0
 15 16  2  0  0  0
 15 32  1  0  0  0
 16 17  1  0  0  0
 16 33  1  0  0  0
 17 34  1  0  0  0
 18 19  1  0  0  0
 19 35  1  0  0  0
 19 36  1  0  0  0
 19 37  1  0  0  0
 20 38  1  0  0  0
 20 39  1  0  0  0
 21 40  1  0  0  0
 21 41  1  0  0  0
M  END
>  <Activity>
6.92082

>  <set_rl>
1

>  <Min_dist>
999.9

>  <Avg_dist>
999.9

>  <PC_uM>
0.45

>  <TG_uM>
0.014

>  <RL_uM>
0.12

$$$$
20-5M
 Wcorina  11170919323D 1   1.00000     0.00000              
CORINA evaluation license 3.46 0067  05.08.2008
 37 39  0  0  0  0  0  0  0  0999 V2000
   -0.0169    1.3968    0.0097 C   0  0  0  0  0  0
    0.0021   -0.0041    0.0020 C   0  0  0  0  0  0
    1.1691   -0.6368   -0.0079 N   0  0  0  0  0  0
    2.3032    0.0479   -0.0100 C   0  0  0  0  0  0
    2.3130    1.3705   -0.0047 N   0  0  0  0  0  0
    1.1801    2.0692    0.0019 C   0  0  0  0  0  0
    1.2662    3.5714   -0.0069 C   0  0  0  0  0  0
   -0.0610    4.1857    0.4357 C   0  0  0  0  0  0
   -1.1879    3.5580   -0.3929 C   0  0  0  0  0  0
   -1.3464    2.0989    0.0329 C   0  0  0  0  0  0
   -2.4945    4.3125   -0.1391 C   0  0  0  0  0  0
   -3.5706    3.7726   -1.0454 C   0  0  0  0  0  0
   -4.3652    2.7223   -0.6250 C   0  0  0  0  0  0
   -5.3532    2.2267   -1.4562 C   0  0  0  0  0  0
   -5.5459    2.7832   -2.7097 C   0  0  0  0  0  0
   -4.7501    3.8339   -3.1287 C   0  0  0  0  0  0
   -3.7664    4.3315   -2.2944 C   0  0  0  0  0  0
   -6.7853    2.1620   -3.7545 Cl  0  0  0  0  0  0
   -6.3508    0.9075   -0.9290 Cl  0  0  0  0  0  0
    3.5059   -0.6368   -0.0175 N   0  0  0  0  0  0
   -1.1834   -0.7208    0.0051 N   0  0  0  0  0  0
    2.0557    3.8911    0.6733 H   0  0  0  0  0  0
    1.5029    3.9129   -1.0146 H   0  0  0  0  0  0
   -0.2255    3.9793    1.4933 H   0  0  0  0  0  0
   -0.0399    5.2626    0.2688 H   0  0  0  0  0  0
   -0.9339    3.6050   -1.4518 H   0  0  0  0  0  0
   -2.0311    1.5965   -0.6503 H   0  0  0  0  0  0
   -1.7565    2.0605    1.0421 H   0  0  0  0  0  0
   -2.7946    4.1800    0.9004 H   0  0  0  0  0  0
   -2.3468    5.3732   -0.3422 H   0  0  0  0  0  0
   -4.2141    2.2885    0.3525 H   0  0  0  0  0  0
   -4.8999    4.2683   -4.1060 H   0  0  0  0  0  0
   -3.1479    5.1546   -2.6202 H   0  0  0  0  0  0
    3.5117   -1.6068   -0.0211 H   0  0  0  0  0  0
    4.3430   -0.1467   -0.0191 H   0  0  0  0  0  0
   -2.0330   -0.2529    0.0127 H   0  0  0  0  0  0
   -1.1638   -1.6906   -0.0002 H   0  0  0  0  0  0
  1  2  1  0  0  0
  1  6  2  0  0  0
  1 10  1  0  0  0
  2  3  2  0  0  0
  2 21  1  0  0  0
  3  4  1  0  0  0
  4  5  2  0  0  0
  4 20  1  0  0  0
  5  6  1  0  0  0
  6  7  1  0  0  0
  7  8  1  0  0  0
  7 22  1  0  0  0
  7 23  1  0  0  0
  8  9  1  0  0  0
  8 24  1  0  0  0
  8 25  1  0  0  0
  9 10  1  0  0  0
  9 11  1  0  0  0
  9 26  1  0  0  0
 10 27  1  0  0  0
 10 28  1  0  0  0
 11 12  1  0  0  0
 11 29  1  0  0  0
 11 30  1  0  0  0
 12 13  1  0  0  0
 12 17  2  0  0  0
 13 14  2  0  0  0
 13 31  1  0  0  0
 14 15  1  0  0  0
 14 19  1  0  0  0
 15 16  2  0  0  0
 15 18  1  0  0  0
 16 17  1  0  0  0
 16 32  1  0  0  0
 17 33  1  0  0  0
 20 34  1  0  0  0
 20 35  1  0  0  0
 21 36  1  0  0  0
 21 37  1  0  0  0
M  END
>  <Activity>
5.13668

>  <set_rl>
1

>  <Min_dist>
999.9

>  <Avg_dist>
999.9

>  <PC_uM>
15

>  <TG_uM>
2.6

>  <RL_uM>
7.3

$$$$
19-7
 Wcorina  11170919323D 1   1.00000     0.00000              
CORINA evaluation license 3.46 0067  05.08.2008
 53 55  0  0  0  0  0  0  0  0999 V2000
   -0.0169    1.3968    0.0097 C   0  0  0  0  0  0
    0.0021   -0.0041    0.0020 C   0  0  0  0  0  0
    1.1691   -0.6368   -0.0079 N   0  0  0  0  0  0
    2.3032    0.0479   -0.0100 C   0  0  0  0  0  0
    2.3130    1.3705   -0.0047 N   0  0  0  0  0  0
    1.1801    2.0692    0.0019 C   0  0  0  0  0  0
    1.2662    3.5714   -0.0069 C   0  0  0  0  0  0
   -0.0610    4.1857    0.4357 C   0  0  0  0  0  0
   -1.1879    3.5580   -0.3929 C   0  0  0  0  0  0
   -1.3464    2.0989    0.0329 C   0  0  0  0  0  0
   -2.4945    4.3125   -0.1391 C   0  0  0  0  0  0
   -3.5406    3.7876   -1.0202 N   0  0  0  0  0  0
   -4.8321    4.3244   -0.9701 C   0  0  0  0  0  0
   -5.1230    5.3534   -0.0867 C   0  0  0  0  0  0
   -6.4032    5.8835   -0.0397 C   0  0  0  0  0  0
   -7.3924    5.3852   -0.8747 C   0  0  0  0  0  0
   -7.1048    4.3592   -1.7557 C   0  0  0  0  0  0
   -5.8263    3.8302   -1.8113 C   0  0  0  0  0  0
   -5.5427    2.8244   -2.6832 O   0  0  0  0  0  0
   -6.6105    2.3670   -3.5155 C   0  0  0  0  0  0
   -6.1050    1.2426   -4.4216 C   0  0  0  0  0  0
   -6.6895    6.8923    0.8260 O   0  0  0  0  0  0
   -8.0287    7.3908    0.8213 C   0  0  0  0  0  0
   -8.1587    8.5134    1.8527 C   0  0  0  0  0  0
    3.5059   -0.6368   -0.0175 N   0  0  0  0  0  0
   -1.1834   -0.7208    0.0051 N   0  0  0  0  0  0
    2.0557    3.8911    0.6733 H   0  0  0  0  0  0
    1.5029    3.9129   -1.0146 H   0  0  0  0  0  0
   -0.2255    3.9793    1.4933 H   0  0  0  0  0  0
   -0.0399    5.2626    0.2688 H   0  0  0  0  0  0
   -0.9339    3.6050   -1.4518 H   0  0  0  0  0  0
   -2.0311    1.5965   -0.6503 H   0  0  0  0  0  0
   -1.7565    2.0605    1.0421 H   0  0  0  0  0  0
   -2.7946    4.1800    0.9004 H   0  0  0  0  0  0
   -2.3468    5.3732   -0.3422 H   0  0  0  0  0  0
   -3.3381    3.0680   -1.6383 H   0  0  0  0  0  0
   -4.3532    5.7411    0.5641 H   0  0  0  0  0  0
   -8.3891    5.7993   -0.8363 H   0  0  0  0  0  0
   -7.8770    3.9729   -2.4045 H   0  0  0  0  0  0
   -7.4229    1.9938   -2.8919 H   0  0  0  0  0  0
   -6.9726    3.1925   -4.1283 H   0  0  0  0  0  0
   -6.9195    0.8937   -5.0565 H   0  0  0  0  0  0
   -5.2926    1.6159   -5.0451 H   0  0  0  0  0  0
   -5.7429    0.4172   -3.8088 H   0  0  0  0  0  0
   -8.2690    7.7776   -0.1690 H   0  0  0  0  0  0
   -8.7174    6.5844    1.0733 H   0  0  0  0  0  0
   -7.4700    9.3198    1.6007 H   0  0  0  0  0  0
   -9.1802    8.8936    1.8491 H   0  0  0  0  0  0
   -7.9184    8.1265    2.8430 H   0  0  0  0  0  0
    3.5117   -1.6068   -0.0211 H   0  0  0  0  0  0
    4.3430   -0.1467   -0.0191 H   0  0  0  0  0  0
   -2.0330   -0.2529    0.0127 H   0  0  0  0  0  0
   -1.1638   -1.6906   -0.0002 H   0  0  0  0  0  0
  1  2  1  0  0  0
  1  6  2  0  0  0
  1 10  1  0  0  0
  2  3  2  0  0  0
  2 26  1  0  0  0
  3  4  1  0  0  0
  4  5  2  0  0  0
  4 25  1  0  0  0
  5  6  1  0  0  0
  6  7  1  0  0  0
  7  8  1  0  0  0
  7 27  1  0  0  0
  7 28  1  0  0  0
  8  9  1  0  0  0
  8 29  1  0  0  0
  8 30  1  0  0  0
  9 10  1  0  0  0
  9 11  1  0  0  0
  9 31  1  0  0  0
 10 32  1  0  0  0
 10 33  1  0  0  0
 11 12  1  0  0  0
 11 34  1  0  0  0
 11 35  1  0  0  0
 12 13  1  0  0  0
 12 36  1  0  0  0
 13 14  1  0  0  0
 13 18  2  0  0  0
 14 15  2  0  0  0
 14 37  1  0  0  0
 15 16  1  0  0  0
 15 22  1  0  0  0
 16 17  2  0  0  0
 16 38  1  0  0  0
 17 18  1  0  0  0
 17 39  1  0  0  0
 18 19  1  0  0  0
 19 20  1  0  0  0
 20 21  1  0  0  0
 20 40  1  0  0  0
 20 41  1  0  0  0
 21 42  1  0  0  0
 21 43  1  0  0  0
 21 44  1  0  0  0
 22 23  1  0  0  0
 23 24  1  0  0  0
 23 45  1  0  0  0
 23 46  1  0  0  0
 24 47  1  0  0  0
 24 48  1  0  0  0
 24 49  1  0  0  0
 25 50  1  0  0  0
 25 51  1  0  0  0
 26 52  1  0  0  0
 26 53  1  0  0  0
M  END
>  <Activity>
5.83268

>  <set_rl>
1

>  <Min_dist>
999.9

>  <Avg_dist>
999.9

>  <PC_uM>
1.57

>  <TG_uM>
0.14

>  <RL_uM>
1.47

$$$$
20-9A
 Wcorina  11170919323D 1   1.00000     0.00000              
CORINA evaluation license 3.46 0067  05.08.2008
 30 31  0  0  0  0  0  0  0  0999 V2000
   -0.0169    1.3968    0.0097 C   0  0  0  0  0  0
    0.0021   -0.0041    0.0020 C   0  0  0  0  0  0
    1.1691   -0.6368   -0.0079 N   0  0  0  0  0  0
    2.3032    0.0479   -0.0100 C   0  0  0  0  0  0
    2.3130    1.3705   -0.0047 N   0  0  0  0  0  0
    1.1801    2.0692    0.0019 C   0  0  0  0  0  0
    1.2662    3.5714   -0.0069 C   0  0  0  0  0  0
   -0.0610    4.1857    0.4357 C   0  0  0  0  0  0
   -1.1879    3.5580   -0.3929 C   0  0  0  0  0  0
   -1.3464    2.0989    0.0329 C   0  0  0  0  0  0
   -2.4945    4.3125   -0.1391 C   0  0  0  0  0  0
   -3.5870    3.7643   -1.0593 C   0  0  0  0  0  0
    3.5059   -0.6368   -0.0175 N   0  0  0  0  0  0
   -1.1834   -0.7208    0.0051 N   0  0  0  0  0  0
    2.0557    3.8911    0.6733 H   0  0  0  0  0  0
    1.5029    3.9129   -1.0146 H   0  0  0  0  0  0
   -0.2255    3.9793    1.4933 H   0  0  0  0  0  0
   -0.0399    5.2626    0.2688 H   0  0  0  0  0  0
   -0.9339    3.6050   -1.4518 H   0  0  0  0  0  0
   -2.0311    1.5965   -0.6503 H   0  0  0  0  0  0
   -1.7565    2.0605    1.0421 H   0  0  0  0  0  0
   -2.7946    4.1800    0.9004 H   0  0  0  0  0  0
   -2.3468    5.3732   -0.3422 H   0  0  0  0  0  0
   -4.5179    4.3019   -0.8784 H   0  0  0  0  0  0
   -3.2869    3.8969   -2.0987 H   0  0  0  0  0  0
   -3.7347    2.7036   -0.8562 H   0  0  0  0  0  0
    3.5117   -1.6068   -0.0211 H   0  0  0  0  0  0
    4.3430   -0.1467   -0.0191 H   0  0  0  0  0  0
   -2.0330   -0.2529    0.0127 H   0  0  0  0  0  0
   -1.1638   -1.6906   -0.0002 H   0  0  0  0  0  0
  1  2  1  0  0  0
  1  6  2  0  0  0
  1 10  1  0  0  0
  2  3  2  0  0  0
  2 14  1  0  0  0
  3  4  1  0  0  0
  4  5  2  0  0  0
  4 13  1  0  0  0
  5  6  1  0  0  0
  6  7  1  0  0  0
  7  8  1  0  0  0
  7 15  1  0  0  0
  7 16  1  0  0  0
  8  9  1  0  0  0
  8 17  1  0  0  0
  8 18  1  0  0  0
  9 10  1  0  0  0
  9 11  1  0  0  0
  9 19  1  0  0  0
 10 20  1  0  0  0
 10 21  1  0  0  0
 11 12  1  0  0  0
 11 22  1  0  0  0
 11 23  1  0  0  0
 12 24  1  0  0  0
 12 25  1  0  0  0
 12 26  1  0  0  0
 13 27  1  0  0  0
 13 28  1  0  0  0
 14 29  1  0  0  0
 14 30  1  0  0  0
M  END
>  <Activity>
5.52288

>  <set_rl>
1

>  <Min_dist>
999.9

>  <Avg_dist>
999.9

>  <PC_uM>
6.9

>  <TG_uM>
1.1

>  <RL_uM>
3

$$$$
20-9B
 Wcorina  11170919323D 1   1.00000     0.00000              
CORINA evaluation license 3.46 0067  05.08.2008
 36 37  0  0  0  0  0  0  0  0999 V2000
   -0.0169    1.3968    0.0097 C   0  0  0  0  0  0
    0.0021   -0.0041    0.0020 C   0  0  0  0  0  0
    1.1691   -0.6368   -0.0079 N   0  0  0  0  0  0
    2.3032    0.0479   -0.0100 C   0  0  0  0  0  0
    2.3130    1.3705   -0.0047 N   0  0  0  0  0  0
    1.1801    2.0692    0.0019 C   0  0  0  0  0  0
    1.2662    3.5714   -0.0069 C   0  0  0  0  0  0
   -0.0610    4.1857    0.4357 C   0  0  0  0  0  0
   -1.1879    3.5580   -0.3929 C   0  0  0  0  0  0
   -1.3464    2.0989    0.0329 C   0  0  0  0  0  0
   -2.4945    4.3125   -0.1391 C   0  0  0  0  0  0
   -2.3235    5.7785   -0.5425 C   0  0  0  0  0  0
   -3.6162    3.6831   -0.9677 C   0  0  0  0  0  0
   -2.8504    4.2306    1.3467 C   0  0  0  0  0  0
    3.5059   -0.6368   -0.0175 N   0  0  0  0  0  0
   -1.1834   -0.7208    0.0051 N   0  0  0  0  0  0
    2.0557    3.8911    0.6733 H   0  0  0  0  0  0
    1.5029    3.9129   -1.0146 H   0  0  0  0  0  0
   -0.2255    3.9793    1.4933 H   0  0  0  0  0  0
   -0.0399    5.2626    0.2688 H   0  0  0  0  0  0
   -0.9339    3.6050   -1.4518 H   0  0  0  0  0  0
   -2.0311    1.5965   -0.6503 H   0  0  0  0  0  0
   -1.7565    2.0605    1.0421 H   0  0  0  0  0  0
   -2.0699    5.8368   -1.6010 H   0  0  0  0  0  0
   -3.2543    6.3160   -0.3617 H   0  0  0  0  0  0
   -1.5244    6.2269    0.0478 H   0  0  0  0  0  0
   -3.7380    2.6387   -0.6803 H   0  0  0  0  0  0
   -4.5470    4.2207   -0.7869 H   0  0  0  0  0  0
   -3.3626    3.7414   -2.0262 H   0  0  0  0  0  0
   -2.0513    4.6790    1.9370 H   0  0  0  0  0  0
   -3.7812    4.7682    1.5275 H   0  0  0  0  0  0
   -2.9722    3.1863    1.6341 H   0  0  0  0  0  0
    3.5117   -1.6068   -0.0211 H   0  0  0  0  0  0
    4.3430   -0.1467   -0.0191 H   0  0  0  0  0  0
   -2.0330   -0.2529    0.0127 H   0  0  0  0  0  0
   -1.1638   -1.6906   -0.0002 H   0  0  0  0  0  0
  1  2  1  0  0  0
  1  6  2  0  0  0
  1 10  1  0  0  0
  2  3  2  0  0  0
  2 16  1  0  0  0
  3  4  1  0  0  0
  4  5  2  0  0  0
  4 15  1  0  0  0
  5  6  1  0  0  0
  6  7  1  0  0  0
  7  8  1  0  0  0
  7 17  1  0  0  0
  7 18  1  0  0  0
  8  9  1  0  0  0
  8 19  1  0  0  0
  8 20  1  0  0  0
  9 10  1  0  0  0
  9 11  1  0  0  0
  9 21  1  0  0  0
 10 22  1  0  0  0
 10 23  1  0  0  0
 11 12  1  0  0  0
 11 13  1  0  0  0
 11 14  1  0  0  0
 12 24  1  0  0  0
 12 25  1  0  0  0
 12 26  1  0  0  0
 13 27  1  0  0  0
 13 28  1  0  0  0
 13 29  1  0  0  0
 14 30  1  0  0  0
 14 31  1  0  0  0
 14 32  1  0  0  0
 15 33  1  0  0  0
 15 34  1  0  0  0
 16 35  1  0  0  0
 16 36  1  0  0  0
M  END
>  <Activity>
7.18709

>  <set_rl>
1

>  <Min_dist>
999.9

>  <Avg_dist>
999.9

>  <PC_uM>
0.18

>  <TG_uM>
0.018

>  <RL_uM>
0.065

$$$$
14-8
 Wcorina  11170919323D 1   1.00000     0.00000              
CORINA evaluation license 3.46 0067  05.08.2008
 37 39  0  0  0  0  0  0  0  0999 V2000
   -0.0160    1.3254    0.0093 N   0  0  0  0  0  0
    0.0021   -0.0041    0.0020 C   0  0  0  0  0  0
    1.1123   -0.7135   -0.0124 N   0  0  0  0  0  0
    2.3111   -0.1167   -0.0206 C   0  0  0  0  0  0
    2.3724    1.2970   -0.0136 C   0  0  0  0  0  0
    1.1058    2.0310    0.0024 C   0  0  0  0  0  0
    1.0809    3.4095    0.0096 N   0  0  0  0  0  0
    3.5480    1.9180   -0.0206 N   0  0  0  0  0  0
    4.6727    1.2415   -0.0340 C   0  0  0  0  0  0
    4.6877   -0.1515   -0.0420 C   0  0  0  0  0  0
    3.5112   -0.8476   -0.0355 C   0  0  0  0  0  0
    5.9804    1.9904   -0.0414 C   0  0  0  0  0  0
    6.3324    2.3449   -1.4186 N   0  0  0  0  0  0
    5.9022    3.5596   -1.9591 C   0  0  0  0  0  0
    6.2351    3.8969   -3.2647 C   0  0  0  0  0  0
    5.8086    5.0981   -3.7964 C   0  0  0  0  0  0
    5.0502    5.9652   -3.0297 C   0  0  0  0  0  0
    4.7174    5.6318   -1.7285 C   0  0  0  0  0  0
    5.1360    4.4292   -1.1937 C   0  0  0  0  0  0
    4.5157    7.4742   -3.7012 Cl  0  0  0  0  0  0
    7.1354    1.4259   -2.2290 C   0  0  0  0  0  0
   -1.2065   -0.6769    0.0104 N   0  0  0  0  0  0
    0.2322    3.8792    0.0199 H   0  0  0  0  0  0
    1.9120    3.9096    0.0043 H   0  0  0  0  0  0
    5.6287   -0.6814   -0.0534 H   0  0  0  0  0  0
    3.5043   -1.9276   -0.0411 H   0  0  0  0  0  0
    5.8826    2.8983    0.5538 H   0  0  0  0  0  0
    6.7623    1.3604    0.3828 H   0  0  0  0  0  0
    6.8273    3.2207   -3.8634 H   0  0  0  0  0  0
    6.0675    5.3610   -4.8114 H   0  0  0  0  0  0
    4.1259    6.3107   -1.1321 H   0  0  0  0  0  0
    4.8716    4.1673   -0.1799 H   0  0  0  0  0  0
    6.4760    0.7443   -2.7663 H   0  0  0  0  0  0
    7.7291    1.9958   -2.9438 H   0  0  0  0  0  0
    7.7986    0.8539   -1.5801 H   0  0  0  0  0  0
   -2.0388   -0.1788    0.0214 H   0  0  0  0  0  0
   -1.2218   -1.6467    0.0054 H   0  0  0  0  0  0
  1  2  1  0  0  0
  1  6  2  0  0  0
  2  3  2  0  0  0
  2 22  1  0  0  0
  3  4  1  0  0  0
  4  5  2  0  0  0
  4 11  1  0  0  0
  5  6  1  0  0  0
  5  8  1  0  0  0
  6  7  1  0  0  0
  7 23  1  0  0  0
  7 24  1  0  0  0
  8  9  2  0  0  0
  9 10  1  0  0  0
  9 12  1  0  0  0
 10 11  2  0  0  0
 10 25  1  0  0  0
 11 26  1  0  0  0
 12 13  1  0  0  0
 12 27  1  0  0  0
 12 28  1  0  0  0
 13 14  1  0  0  0
 13 21  1  0  0  0
 14 15  1  0  0  0
 14 19  2  0  0  0
 15 16  2  0  0  0
 15 29  1  0  0  0
 16 17  1  0  0  0
 16 30  1  0  0  0
 17 18  2  0  0  0
 17 20  1  0  0  0
 18 19  1  0  0  0
 18 31  1  0  0  0
 19 32  1  0  0  0
 21 33  1  0  0  0
 21 34  1  0  0  0
 21 35  1  0  0  0
 22 36  1  0  0  0
 22 37  1  0  0  0
M  END
>  <Activity>
7.65758

>  <set_rl>
1

>  <Min_dist>
999.9

>  <Avg_dist>
999.9

>  <PC_uM>
0.062

>  <TG_uM>
0.015

>  <RL_uM>
0.022

$$$$
14-9
 Wcorina  11170919323D 1   1.00000     0.00000              
CORINA evaluation license 3.46 0067  05.08.2008
 37 39  0  0  0  0  0  0  0  0999 V2000
   -0.0160    1.3254    0.0093 N   0  0  0  0  0  0
    0.0021   -0.0041    0.0020 C   0  0  0  0  0  0
    1.1123   -0.7135   -0.0124 N   0  0  0  0  0  0
    2.3111   -0.1167   -0.0206 C   0  0  0  0  0  0
    2.3724    1.2970   -0.0136 C   0  0  0  0  0  0
    1.1058    2.0310    0.0024 C   0  0  0  0  0  0
    1.0809    3.4095    0.0096 N   0  0  0  0  0  0
    3.5480    1.9180   -0.0206 N   0  0  0  0  0  0
    4.6727    1.2415   -0.0340 C   0  0  0  0  0  0
    4.6877   -0.1515   -0.0420 C   0  0  0  0  0  0
    3.5112   -0.8476   -0.0355 C   0  0  0  0  0  0
    5.9804    1.9904   -0.0414 C   0  0  0  0  0  0
    6.3324    2.3449   -1.4186 N   0  0  0  0  0  0
    5.9024    3.5590   -1.9589 C   0  0  0  0  0  0
    6.2354    3.8965   -3.2649 C   0  0  0  0  0  0
    5.8090    5.0975   -3.7966 C   0  0  0  0  0  0
    5.0514    5.9647   -3.0309 C   0  0  0  0  0  0
    4.7181    5.6323   -1.7295 C   0  0  0  0  0  0
    5.1363    4.4285   -1.1938 C   0  0  0  0  0  0
    3.7678    6.7246   -0.7716 Cl  0  0  0  0  0  0
    7.1354    1.4259   -2.2290 C   0  0  0  0  0  0
   -1.2065   -0.6769    0.0104 N   0  0  0  0  0  0
    0.2322    3.8792    0.0199 H   0  0  0  0  0  0
    1.9120    3.9096    0.0043 H   0  0  0  0  0  0
    5.6287   -0.6814   -0.0534 H   0  0  0  0  0  0
    3.5043   -1.9276   -0.0411 H   0  0  0  0  0  0
    5.8826    2.8983    0.5538 H   0  0  0  0  0  0
    6.7623    1.3604    0.3828 H   0  0  0  0  0  0
    6.8276    3.2203   -3.8636 H   0  0  0  0  0  0
    6.0678    5.3600   -4.8118 H   0  0  0  0  0  0
    4.7196    6.9035   -3.4491 H   0  0  0  0  0  0
    4.8718    4.1669   -0.1799 H   0  0  0  0  0  0
    6.4760    0.7443   -2.7663 H   0  0  0  0  0  0
    7.7291    1.9958   -2.9438 H   0  0  0  0  0  0
    7.7986    0.8539   -1.5801 H   0  0  0  0  0  0
   -2.0388   -0.1788    0.0214 H   0  0  0  0  0  0
   -1.2218   -1.6467    0.0054 H   0  0  0  0  0  0
  1  2  1  0  0  0
  1  6  2  0  0  0
  2  3  2  0  0  0
  2 22  1  0  0  0
  3  4  1  0  0  0
  4  5  2  0  0  0
  4 11  1  0  0  0
  5  6  1  0  0  0
  5  8  1  0  0  0
  6  7  1  0  0  0
  7 23  1  0  0  0
  7 24  1  0  0  0
  8  9  2  0  0  0
  9 10  1  0  0  0
  9 12  1  0  0  0
 10 11  2  0  0  0
 10 25  1  0  0  0
 11 26  1  0  0  0
 12 13  1  0  0  0
 12 27  1  0  0  0
 12 28  1  0  0  0
 13 14  1  0  0  0
 13 21  1  0  0  0
 14 15  1  0  0  0
 14 19  2  0  0  0
 15 16  2  0  0  0
 15 29  1  0  0  0
 16 17  1  0  0  0
 16 30  1  0  0  0
 17 18  2  0  0  0
 17 31  1  0  0  0
 18 19  1  0  0  0
 18 20  1  0  0  0
 19 32  1  0  0  0
 21 33  1  0  0  0
 21 34  1  0  0  0
 21 35  1  0  0  0
 22 36  1  0  0  0
 22 37  1  0  0  0
M  END
>  <Activity>
7.17393

>  <set_rl>
1

>  <Min_dist>
999.9

>  <Avg_dist>
999.9

>  <PC_uM>
2.1

>  <TG_uM>
0.02

>  <RL_uM>
0.067

$$$$
21-4
 Wcorina  11170919323D 1   1.00000     0.00000              
CORINA evaluation license 3.46 0067  05.08.2008
 34 36  0  0  0  0  0  0  0  0999 V2000
   -0.0160    1.3254    0.0093 N   0  0  0  0  0  0
    0.0021   -0.0041    0.0020 C   0  0  0  0  0  0
    1.1123   -0.7135   -0.0124 N   0  0  0  0  0  0
    2.3111   -0.1167   -0.0206 C   0  0  0  0  0  0
    2.3724    1.2970   -0.0136 C   0  0  0  0  0  0
    1.1058    2.0310    0.0024 C   0  0  0  0  0  0
    1.0809    3.4095    0.0096 N   0  0  0  0  0  0
    3.5480    1.9180   -0.0206 N   0  0  0  0  0  0
    4.6727    1.2415   -0.0340 C   0  0  0  0  0  0
    4.6877   -0.1515   -0.0420 C   0  0  0  0  0  0
    3.5112   -0.8476   -0.0355 C   0  0  0  0  0  0
    5.9804    1.9904   -0.0414 C   0  0  0  0  0  0
    6.3324    2.3449   -1.4186 N   0  0  0  0  0  0
    7.5108    3.0479   -1.6793 C   0  0  0  0  0  0
    7.8461    3.3848   -2.9846 C   0  0  0  0  0  0
    9.0117    4.0804   -3.2389 C   0  0  0  0  0  0
    9.8448    4.4415   -2.1959 C   0  0  0  0  0  0
    9.5141    4.1078   -0.8953 C   0  0  0  0  0  0
    8.3473    3.4168   -0.6335 C   0  0  0  0  0  0
   -1.2065   -0.6769    0.0104 N   0  0  0  0  0  0
    0.2322    3.8792    0.0199 H   0  0  0  0  0  0
    1.9120    3.9096    0.0043 H   0  0  0  0  0  0
    5.6287   -0.6814   -0.0534 H   0  0  0  0  0  0
    3.5043   -1.9276   -0.0411 H   0  0  0  0  0  0
    5.8826    2.8983    0.5538 H   0  0  0  0  0  0
    6.7623    1.3604    0.3828 H   0  0  0  0  0  0
    5.7471    2.0913   -2.1493 H   0  0  0  0  0  0
    7.1961    3.1028   -3.7997 H   0  0  0  0  0  0
    9.2731    4.3424   -4.2535 H   0  0  0  0  0  0
   10.7559    4.9852   -2.3975 H   0  0  0  0  0  0
   10.1669    4.3913   -0.0830 H   0  0  0  0  0  0
    8.0873    3.1603    0.3829 H   0  0  0  0  0  0
   -2.0388   -0.1788    0.0214 H   0  0  0  0  0  0
   -1.2218   -1.6467    0.0054 H   0  0  0  0  0  0
  1  2  1  0  0  0
  1  6  2  0  0  0
  2  3  2  0  0  0
  2 20  1  0  0  0
  3  4  1  0  0  0
  4  5  2  0  0  0
  4 11  1  0  0  0
  5  6  1  0  0  0
  5  8  1  0  0  0
  6  7  1  0  0  0
  7 21  1  0  0  0
  7 22  1  0  0  0
  8  9  2  0  0  0
  9 10  1  0  0  0
  9 12  1  0  0  0
 10 11  2  0  0  0
 10 23  1  0  0  0
 11 24  1  0  0  0
 12 13  1  0  0  0
 12 25  1  0  0  0
 12 26  1  0  0  0
 13 14  1  0  0  0
 13 27  1  0  0  0
 14 15  1  0  0  0
 14 19  2  0  0  0
 15 16  2  0  0  0
 15 28  1  0  0  0
 16 17  1  0  0  0
 16 29  1  0  0  0
 17 18  2  0  0  0
 17 30  1  0  0  0
 18 19  1  0  0  0
 18 31  1  0  0  0
 19 32  1  0  0  0
 20 33  1  0  0  0
 20 34  1  0  0  0
M  END
>  <Activity>
6.58503

>  <set_rl>
1

>  <Min_dist>
999.9

>  <Avg_dist>
999.9

>  <PC_uM>
1.7

>  <TG_uM>
0.085

>  <RL_uM>
0.26

$$$$
21-7
 Wcorina  11170919323D 1   1.00000     0.00000              
CORINA evaluation license 3.46 0067  05.08.2008
 41 43  0  0  0  0  0  0  0  0999 V2000
   -0.0160    1.3254    0.0093 N   0  0  0  0  0  0
    0.0021   -0.0041    0.0020 C   0  0  0  0  0  0
    1.1123   -0.7135   -0.0124 N   0  0  0  0  0  0
    2.3111   -0.1167   -0.0206 C   0  0  0  0  0  0
    2.3724    1.2970   -0.0136 C   0  0  0  0  0  0
    1.1058    2.0310    0.0024 C   0  0  0  0  0  0
    1.0809    3.4095    0.0096 N   0  0  0  0  0  0
    3.5480    1.9180   -0.0206 N   0  0  0  0  0  0
    4.6727    1.2415   -0.0340 C   0  0  0  0  0  0
    4.6877   -0.1515   -0.0420 C   0  0  0  0  0  0
    3.5112   -0.8476   -0.0355 C   0  0  0  0  0  0
    5.9804    1.9904   -0.0414 C   0  0  0  0  0  0
    6.3334    2.3458   -1.4223 N   0  0  0  0  0  0
    7.4169    3.2314   -1.4511 C   0  0  0  0  0  0
    8.6359    2.8569   -0.9050 C   0  0  0  0  0  0
    9.7044    3.7333   -0.9346 C   0  0  0  0  0  0
    9.5617    4.9835   -1.5074 C   0  0  0  0  0  0
    8.3496    5.3637   -2.0536 C   0  0  0  0  0  0
    7.2756    4.4892   -2.0332 C   0  0  0  0  0  0
    6.0844    4.8597   -2.5751 O   0  0  0  0  0  0
    6.0130    6.1640   -3.1545 C   0  0  0  0  0  0
    6.6141    1.1445   -2.2198 C   0  0  0  0  0  0
   -1.2065   -0.6769    0.0104 N   0  0  0  0  0  0
    0.2322    3.8792    0.0199 H   0  0  0  0  0  0
    1.9120    3.9096    0.0043 H   0  0  0  0  0  0
    5.6287   -0.6814   -0.0534 H   0  0  0  0  0  0
    3.5043   -1.9276   -0.0411 H   0  0  0  0  0  0
    5.8826    2.8983    0.5538 H   0  0  0  0  0  0
    6.7623    1.3604    0.3828 H   0  0  0  0  0  0
    8.7500    1.8810   -0.4566 H   0  0  0  0  0  0
   10.6529    3.4408   -0.5089 H   0  0  0  0  0  0
   10.3992    5.6652   -1.5280 H   0  0  0  0  0  0
    8.2415    6.3410   -2.5003 H   0  0  0  0  0  0
    5.0108    6.3319   -3.5491 H   0  0  0  0  0  0
    6.2339    6.9124   -2.3934 H   0  0  0  0  0  0
    6.7397    6.2427   -3.9631 H   0  0  0  0  0  0
    5.7309    0.5060   -2.2381 H   0  0  0  0  0  0
    6.8726    1.4363   -3.2377 H   0  0  0  0  0  0
    7.4471    0.5998   -1.7753 H   0  0  0  0  0  0
   -2.0388   -0.1788    0.0214 H   0  0  0  0  0  0
   -1.2218   -1.6467    0.0054 H   0  0  0  0  0  0
  1  2  1  0  0  0
  1  6  2  0  0  0
  2  3  2  0  0  0
  2 23  1  0  0  0
  3  4  1  0  0  0
  4  5  2  0  0  0
  4 11  1  0  0  0
  5  6  1  0  0  0
  5  8  1  0  0  0
  6  7  1  0  0  0
  7 24  1  0  0  0
  7 25  1  0  0  0
  8  9  2  0  0  0
  9 10  1  0  0  0
  9 12  1  0  0  0
 10 11  2  0  0  0
 10 26  1  0  0  0
 11 27  1  0  0  0
 12 13  1  0  0  0
 12 28  1  0  0  0
 12 29  1  0  0  0
 13 14  1  0  0  0
 13 22  1  0  0  0
 14 15  1  0  0  0
 14 19  2  0  0  0
 15 16  2  0  0  0
 15 30  1  0  0  0
 16 17  1  0  0  0
 16 31  1  0  0  0
 17 18  2  0  0  0
 17 32  1  0  0  0
 18 19  1  0  0  0
 18 33  1  0  0  0
 19 20  1  0  0  0
 20 21  1  0  0  0
 21 34  1  0  0  0
 21 35  1  0  0  0
 21 36  1  0  0  0
 22 37  1  0  0  0
 22 38  1  0  0  0
 22 39  1  0  0  0
 23 40  1  0  0  0
 23 41  1  0  0  0
M  END
>  <Activity>
6.92082

>  <set_rl>
1

>  <Min_dist>
999.9

>  <Avg_dist>
999.9

>  <PC_uM>
0.51

>  <TG_uM>
0.026

>  <RL_uM>
0.12

$$$$
21-8
 Wcorina  11170919323D 1   1.00000     0.00000              
CORINA evaluation license 3.46 0067  05.08.2008
 38 40  0  0  0  0  0  0  0  0999 V2000
   -0.0160    1.3254    0.0093 N   0  0  0  0  0  0
    0.0021   -0.0041    0.0020 C   0  0  0  0  0  0
    1.1123   -0.7135   -0.0124 N   0  0  0  0  0  0
    2.3111   -0.1167   -0.0206 C   0  0  0  0  0  0
    2.3724    1.2970   -0.0136 C   0  0  0  0  0  0
    1.1058    2.0310    0.0024 C   0  0  0  0  0  0
    1.0809    3.4095    0.0096 N   0  0  0  0  0  0
    3.5480    1.9180   -0.0206 N   0  0  0  0  0  0
    4.6727    1.2415   -0.0340 C   0  0  0  0  0  0
    4.6877   -0.1515   -0.0420 C   0  0  0  0  0  0
    3.5112   -0.8476   -0.0355 C   0  0  0  0  0  0
    5.9804    1.9904   -0.0414 C   0  0  0  0  0  0
    6.3324    2.3449   -1.4186 N   0  0  0  0  0  0
    7.5107    3.0479   -1.6793 C   0  0  0  0  0  0
    8.3500    3.4116   -0.6331 C   0  0  0  0  0  0
    9.5154    4.1064   -0.8913 C   0  0  0  0  0  0
    9.8499    4.4421   -2.1897 C   0  0  0  0  0  0
    9.0157    4.0815   -3.2384 C   0  0  0  0  0  0
    7.8480    3.3792   -2.9843 C   0  0  0  0  0  0
    9.3458    4.4127   -4.5144 O   0  0  0  0  0  0
   10.5661    5.1321   -4.7030 C   0  0  0  0  0  0
   -1.2065   -0.6769    0.0104 N   0  0  0  0  0  0
    0.2322    3.8792    0.0199 H   0  0  0  0  0  0
    1.9120    3.9096    0.0043 H   0  0  0  0  0  0
    5.6287   -0.6814   -0.0534 H   0  0  0  0  0  0
    3.5043   -1.9276   -0.0411 H   0  0  0  0  0  0
    5.8826    2.8983    0.5538 H   0  0  0  0  0  0
    6.7623    1.3604    0.3828 H   0  0  0  0  0  0
    5.7471    2.0913   -2.1493 H   0  0  0  0  0  0
    8.0906    3.1512    0.3824 H   0  0  0  0  0  0
   10.1665    4.3883   -0.0770 H   0  0  0  0  0  0
   10.7615    4.9860   -2.3883 H   0  0  0  0  0  0
    7.1997    3.0942   -3.7996 H   0  0  0  0  0  0
   10.5197    6.0751   -4.1583 H   0  0  0  0  0  0
   11.3998    4.5375   -4.3297 H   0  0  0  0  0  0
   10.7094    5.3324   -5.7648 H   0  0  0  0  0  0
   -2.0388   -0.1788    0.0214 H   0  0  0  0  0  0
   -1.2218   -1.6467    0.0054 H   0  0  0  0  0  0
  1  2  1  0  0  0
  1  6  2  0  0  0
  2  3  2  0  0  0
  2 22  1  0  0  0
  3  4  1  0  0  0
  4  5  2  0  0  0
  4 11  1  0  0  0
  5  6  1  0  0  0
  5  8  1  0  0  0
  6  7  1  0  0  0
  7 23  1  0  0  0
  7 24  1  0  0  0
  8  9  2  0  0  0
  9 10  1  0  0  0
  9 12  1  0  0  0
 10 11  2  0  0  0
 10 25  1  0  0  0
 11 26  1  0  0  0
 12 13  1  0  0  0
 12 27  1  0  0  0
 12 28  1  0  0  0
 13 14  1  0  0  0
 13 29  1  0  0  0
 14 15  1  0  0  0
 14 19  2  0  0  0
 15 16  2  0  0  0
 15 30  1  0  0  0
 16 17  1  0  0  0
 16 31  1  0  0  0
 17 18  2  0  0  0
 17 32  1  0  0  0
 18 19  1  0  0  0
 18 20  1  0  0  0
 19 33  1  0  0  0
 20 21  1  0  0  0
 21 34  1  0  0  0
 21 35  1  0  0  0
 21 36  1  0  0  0
 22 37  1  0  0  0
 22 38  1  0  0  0
M  END
>  <Activity>
6.69897

>  <set_rl>
1

>  <Min_dist>
999.9

>  <Avg_dist>
999.9

>  <PC_uM>
1.7

>  <TG_uM>
0.1

>  <RL_uM>
0.2

$$$$
21-10
 Wcorina  11170919323D 1   1.00000     0.00000              
CORINA evaluation license 3.46 0067  05.08.2008
 38 40  0  0  0  0  0  0  0  0999 V2000
   -0.0160    1.3254    0.0093 N   0  0  0  0  0  0
    0.0021   -0.0041    0.0020 C   0  0  0  0  0  0
    1.1123   -0.7135   -0.0124 N   0  0  0  0  0  0
    2.3111   -0.1167   -0.0206 C   0  0  0  0  0  0
    2.3724    1.2970   -0.0136 C   0  0  0  0  0  0
    1.1058    2.0310    0.0024 C   0  0  0  0  0  0
    1.0809    3.4095    0.0096 N   0  0  0  0  0  0
    3.5480    1.9180   -0.0206 N   0  0  0  0  0  0
    4.6727    1.2415   -0.0340 C   0  0  0  0  0  0
    4.6877   -0.1515   -0.0420 C   0  0  0  0  0  0
    3.5112   -0.8476   -0.0355 C   0  0  0  0  0  0
    5.9804    1.9904   -0.0414 C   0  0  0  0  0  0
    6.3324    2.3449   -1.4186 N   0  0  0  0  0  0
    7.5130    3.0493   -1.6798 C   0  0  0  0  0  0
    7.8470    3.3854   -2.9851 C   0  0  0  0  0  0
    9.0124    4.0806   -3.2420 C   0  0  0  0  0  0
    9.8493    4.4425   -2.1969 C   0  0  0  0  0  0
    9.5167    4.1067   -0.8929 C   0  0  0  0  0  0
    8.3484    3.4174   -0.6335 C   0  0  0  0  0  0
   10.9970    5.1266   -2.4508 O   0  0  0  0  0  0
   11.8115    5.4671   -1.3271 C   0  0  0  0  0  0
   -1.2065   -0.6769    0.0104 N   0  0  0  0  0  0
    0.2322    3.8792    0.0199 H   0  0  0  0  0  0
    1.9120    3.9096    0.0043 H   0  0  0  0  0  0
    5.6287   -0.6814   -0.0534 H   0  0  0  0  0  0
    3.5043   -1.9276   -0.0411 H   0  0  0  0  0  0
    5.8826    2.8983    0.5538 H   0  0  0  0  0  0
    6.7623    1.3604    0.3828 H   0  0  0  0  0  0
    5.7471    2.0913   -2.1493 H   0  0  0  0  0  0
    7.1958    3.1031   -3.7991 H   0  0  0  0  0  0
    9.2724    4.3421   -4.2571 H   0  0  0  0  0  0
   10.1691    4.3886   -0.0797 H   0  0  0  0  0  0
    8.0870    3.1605    0.3824 H   0  0  0  0  0  0
   11.2417    6.0950   -0.6423 H   0  0  0  0  0  0
   12.1208    4.5568   -0.8135 H   0  0  0  0  0  0
   12.6934    6.0091   -1.6686 H   0  0  0  0  0  0
   -2.0388   -0.1788    0.0214 H   0  0  0  0  0  0
   -1.2218   -1.6467    0.0054 H   0  0  0  0  0  0
  1  2  1  0  0  0
  1  6  2  0  0  0
  2  3  2  0  0  0
  2 22  1  0  0  0
  3  4  1  0  0  0
  4  5  2  0  0  0
  4 11  1  0  0  0
  5  6  1  0  0  0
  5  8  1  0  0  0
  6  7  1  0  0  0
  7 23  1  0  0  0
  7 24  1  0  0  0
  8  9  2  0  0  0
  9 10  1  0  0  0
  9 12  1  0  0  0
 10 11  2  0  0  0
 10 25  1  0  0  0
 11 26  1  0  0  0
 12 13  1  0  0  0
 12 27  1  0  0  0
 12 28  1  0  0  0
 13 14  1  0  0  0
 13 29  1  0  0  0
 14 15  1  0  0  0
 14 19  2  0  0  0
 15 16  2  0  0  0
 15 30  1  0  0  0
 16 17  1  0  0  0
 16 31  1  0  0  0
 17 18  2  0  0  0
 17 20  1  0  0  0
 18 19  1  0  0  0
 18 32  1  0  0  0
 19 33  1  0  0  0
 20 21  1  0  0  0
 21 34  1  0  0  0
 21 35  1  0  0  0
 21 36  1  0  0  0
 22 37  1  0  0  0
 22 38  1  0  0  0
M  END
>  <Activity>
7.13668

>  <set_rl>
1

>  <Min_dist>
999.9

>  <Avg_dist>
999.9

>  <PC_uM>
0.85

>  <TG_uM>
0.054

>  <RL_uM>
0.073

$$$$
21-11
 Wcorina  11170919323D 1   1.00000     0.00000              
CORINA evaluation license 3.46 0067  05.08.2008
 41 43  0  0  0  0  0  0  0  0999 V2000
   -0.0160    1.3254    0.0093 N   0  0  0  0  0  0
    0.0021   -0.0041    0.0020 C   0  0  0  0  0  0
    1.1123   -0.7135   -0.0124 N   0  0  0  0  0  0
    2.3111   -0.1167   -0.0206 C   0  0  0  0  0  0
    2.3724    1.2970   -0.0136 C   0  0  0  0  0  0
    1.1058    2.0310    0.0024 C   0  0  0  0  0  0
    1.0809    3.4095    0.0096 N   0  0  0  0  0  0
    3.5480    1.9180   -0.0206 N   0  0  0  0  0  0
    4.6727    1.2415   -0.0340 C   0  0  0  0  0  0
    4.6877   -0.1515   -0.0420 C   0  0  0  0  0  0
    3.5112   -0.8476   -0.0355 C   0  0  0  0  0  0
    5.9804    1.9904   -0.0414 C   0  0  0  0  0  0
    6.3324    2.3449   -1.4186 N   0  0  0  0  0  0
    5.9016    3.5612   -1.9599 C   0  0  0  0  0  0
    6.2350    3.8976   -3.2652 C   0  0  0  0  0  0
    5.8094    5.0983   -3.7987 C   0  0  0  0  0  0
    5.0495    5.9683   -3.0308 C   0  0  0  0  0  0
    4.7164    5.6333   -1.7268 C   0  0  0  0  0  0
    5.1356    4.4301   -1.1939 C   0  0  0  0  0  0
    4.6312    7.1507   -3.5568 O   0  0  0  0  0  0
    3.8523    7.9981   -2.7098 C   0  0  0  0  0  0
    7.1354    1.4259   -2.2290 C   0  0  0  0  0  0
   -1.2065   -0.6769    0.0104 N   0  0  0  0  0  0
    0.2322    3.8792    0.0199 H   0  0  0  0  0  0
    1.9120    3.9096    0.0043 H   0  0  0  0  0  0
    5.6287   -0.6814   -0.0534 H   0  0  0  0  0  0
    3.5043   -1.9276   -0.0411 H   0  0  0  0  0  0
    5.8826    2.8983    0.5538 H   0  0  0  0  0  0
    6.7623    1.3604    0.3828 H   0  0  0  0  0  0
    6.8272    3.2207   -3.8631 H   0  0  0  0  0  0
    6.0686    5.3601   -4.8139 H   0  0  0  0  0  0
    4.1251    6.3115   -1.1294 H   0  0  0  0  0  0
    4.8718    4.1671   -0.1802 H   0  0  0  0  0  0
    2.9452    7.4748   -2.4074 H   0  0  0  0  0  0
    4.4327    8.2601   -1.8252 H   0  0  0  0  0  0
    3.5849    8.9058   -3.2509 H   0  0  0  0  0  0
    6.4760    0.7443   -2.7663 H   0  0  0  0  0  0
    7.7291    1.9958   -2.9438 H   0  0  0  0  0  0
    7.7986    0.8539   -1.5801 H   0  0  0  0  0  0
   -2.0388   -0.1788    0.0214 H   0  0  0  0  0  0
   -1.2218   -1.6467    0.0054 H   0  0  0  0  0  0
  1  2  1  0  0  0
  1  6  2  0  0  0
  2  3  2  0  0  0
  2 23  1  0  0  0
  3  4  1  0  0  0
  4  5  2  0  0  0
  4 11  1  0  0  0
  5  6  1  0  0  0
  5  8  1  0  0  0
  6  7  1  0  0  0
  7 24  1  0  0  0
  7 25  1  0  0  0
  8  9  2  0  0  0
  9 10  1  0  0  0
  9 12  1  0  0  0
 10 11  2  0  0  0
 10 26  1  0  0  0
 11 27  1  0  0  0
 12 13  1  0  0  0
 12 28  1  0  0  0
 12 29  1  0  0  0
 13 14  1  0  0  0
 13 22  1  0  0  0
 14 15  1  0  0  0
 14 19  2  0  0  0
 15 16  2  0  0  0
 15 30  1  0  0  0
 16 17  1  0  0  0
 16 31  1  0  0  0
 17 18  2  0  0  0
 17 20  1  0  0  0
 18 19  1  0  0  0
 18 32  1  0  0  0
 19 33  1  0  0  0
 20 21  1  0  0  0
 21 34  1  0  0  0
 21 35  1  0  0  0
 21 36  1  0  0  0
 22 37  1  0  0  0
 22 38  1  0  0  0
 22 39  1  0  0  0
 23 40  1  0  0  0
 23 41  1  0  0  0
M  END
>  <Activity>
7.74473

>  <set_rl>
1

>  <Min_dist>
999.9

>  <Avg_dist>
999.9

>  <PC_uM>
0.25

>  <TG_uM>
0.016

>  <RL_uM>
0.018

$$$$
21-12
 Wcorina  11170919323D 1   1.00000     0.00000              
CORINA evaluation license 3.46 0067  05.08.2008
 34 36  0  0  0  0  0  0  0  0999 V2000
   -0.0160    1.3254    0.0093 N   0  0  0  0  0  0
    0.0021   -0.0041    0.0020 C   0  0  0  0  0  0
    1.1123   -0.7135   -0.0124 N   0  0  0  0  0  0
    2.3111   -0.1167   -0.0206 C   0  0  0  0  0  0
    2.3724    1.2970   -0.0136 C   0  0  0  0  0  0
    1.1058    2.0310    0.0024 C   0  0  0  0  0  0
    1.0809    3.4095    0.0096 N   0  0  0  0  0  0
    3.5480    1.9180   -0.0206 N   0  0  0  0  0  0
    4.6727    1.2415   -0.0340 C   0  0  0  0  0  0
    4.6877   -0.1515   -0.0420 C   0  0  0  0  0  0
    3.5112   -0.8476   -0.0355 C   0  0  0  0  0  0
    5.9804    1.9904   -0.0414 C   0  0  0  0  0  0
    6.3324    2.3449   -1.4186 N   0  0  0  0  0  0
    7.5115    3.0483   -1.6795 C   0  0  0  0  0  0
    8.3507    3.4122   -0.6344 C   0  0  0  0  0  0
    9.5152    4.1074   -0.8956 C   0  0  0  0  0  0
    9.8463    4.4419   -2.1960 C   0  0  0  0  0  0
    9.0136    4.0816   -3.2394 C   0  0  0  0  0  0
    7.8498    3.3805   -2.9860 C   0  0  0  0  0  0
    6.8085    2.9216   -4.2970 Cl  0  0  0  0  0  0
   -1.2065   -0.6769    0.0104 N   0  0  0  0  0  0
    0.2322    3.8792    0.0199 H   0  0  0  0  0  0
    1.9120    3.9096    0.0043 H   0  0  0  0  0  0
    5.6287   -0.6814   -0.0534 H   0  0  0  0  0  0
    3.5043   -1.9276   -0.0411 H   0  0  0  0  0  0
    5.8826    2.8983    0.5538 H   0  0  0  0  0  0
    6.7623    1.3604    0.3828 H   0  0  0  0  0  0
    5.7471    2.0913   -2.1493 H   0  0  0  0  0  0
    8.0927    3.1520    0.3816 H   0  0  0  0  0  0
   10.1680    4.3904   -0.0831 H   0  0  0  0  0  0
   10.7572    4.9862   -2.3969 H   0  0  0  0  0  0
    9.2749    4.3448   -4.2537 H   0  0  0  0  0  0
   -2.0388   -0.1788    0.0214 H   0  0  0  0  0  0
   -1.2218   -1.6467    0.0054 H   0  0  0  0  0  0
  1  2  1  0  0  0
  1  6  2  0  0  0
  2  3  2  0  0  0
  2 21  1  0  0  0
  3  4  1  0  0  0
  4  5  2  0  0  0
  4 11  1  0  0  0
  5  6  1  0  0  0
  5  8  1  0  0  0
  6  7  1  0  0  0
  7 22  1  0  0  0
  7 23  1  0  0  0
  8  9  2  0  0  0
  9 10  1  0  0  0
  9 12  1  0  0  0
 10 11  2  0  0  0
 10 24  1  0  0  0
 11 25  1  0  0  0
 12 13  1  0  0  0
 12 26  1  0  0  0
 12 27  1  0  0  0
 13 14  1  0  0  0
 13 28  1  0  0  0
 14 15  1  0  0  0
 14 19  2  0  0  0
 15 16  2  0  0  0
 15 29  1  0  0  0
 16 17  1  0  0  0
 16 30  1  0  0  0
 17 18  2  0  0  0
 17 31  1  0  0  0
 18 19  1  0  0  0
 18 32  1  0  0  0
 19 20  1  0  0  0
 21 33  1  0  0  0
 21 34  1  0  0  0
M  END
>  <Activity>
6.85387

>  <set_rl>
1

>  <Min_dist>
999.9

>  <Avg_dist>
999.9

>  <PC_uM>
0.53

>  <TG_uM>
0.11

>  <RL_uM>
0.14

$$$$
21-13
 Wcorina  11170919323D 1   1.00000     0.00000              
CORINA evaluation license 3.46 0067  05.08.2008
 37 39  0  0  0  0  0  0  0  0999 V2000
   -0.0160    1.3254    0.0093 N   0  0  0  0  0  0
    0.0021   -0.0041    0.0020 C   0  0  0  0  0  0
    1.1123   -0.7135   -0.0124 N   0  0  0  0  0  0
    2.3111   -0.1167   -0.0206 C   0  0  0  0  0  0
    2.3724    1.2970   -0.0136 C   0  0  0  0  0  0
    1.1058    2.0310    0.0024 C   0  0  0  0  0  0
    1.0809    3.4095    0.0096 N   0  0  0  0  0  0
    3.5480    1.9180   -0.0206 N   0  0  0  0  0  0
    4.6727    1.2415   -0.0340 C   0  0  0  0  0  0
    4.6877   -0.1515   -0.0420 C   0  0  0  0  0  0
    3.5112   -0.8476   -0.0355 C   0  0  0  0  0  0
    5.9804    1.9904   -0.0414 C   0  0  0  0  0  0
    6.3334    2.3458   -1.4223 N   0  0  0  0  0  0
    7.4152    3.2301   -1.4510 C   0  0  0  0  0  0
    8.6355    2.8549   -0.9043 C   0  0  0  0  0  0
    9.7028    3.7311   -0.9342 C   0  0  0  0  0  0
    9.5577    4.9813   -1.5072 C   0  0  0  0  0  0
    8.3445    5.3589   -2.0527 C   0  0  0  0  0  0
    7.2740    4.4849   -2.0318 C   0  0  0  0  0  0
    5.7532    4.9564   -2.7236 Cl  0  0  0  0  0  0
    6.6141    1.1445   -2.2198 C   0  0  0  0  0  0
   -1.2065   -0.6769    0.0104 N   0  0  0  0  0  0
    0.2322    3.8792    0.0199 H   0  0  0  0  0  0
    1.9120    3.9096    0.0043 H   0  0  0  0  0  0
    5.6287   -0.6814   -0.0534 H   0  0  0  0  0  0
    3.5043   -1.9276   -0.0411 H   0  0  0  0  0  0
    5.8826    2.8983    0.5538 H   0  0  0  0  0  0
    6.7623    1.3604    0.3828 H   0  0  0  0  0  0
    8.7497    1.8790   -0.4559 H   0  0  0  0  0  0
   10.6518    3.4396   -0.5091 H   0  0  0  0  0  0
   10.3939    5.6645   -1.5284 H   0  0  0  0  0  0
    8.2345    6.3361   -2.4991 H   0  0  0  0  0  0
    5.7309    0.5060   -2.2381 H   0  0  0  0  0  0
    6.8726    1.4363   -3.2377 H   0  0  0  0  0  0
    7.4471    0.5998   -1.7753 H   0  0  0  0  0  0
   -2.0388   -0.1788    0.0214 H   0  0  0  0  0  0
   -1.2218   -1.6467    0.0054 H   0  0  0  0  0  0
  1  2  1  0  0  0
  1  6  2  0  0  0
  2  3  2  0  0  0
  2 22  1  0  0  0
  3  4  1  0  0  0
  4  5  2  0  0  0
  4 11  1  0  0  0
  5  6  1  0  0  0
  5  8  1  0  0  0
  6  7  1  0  0  0
  7 23  1  0  0  0
  7 24  1  0  0  0
  8  9  2  0  0  0
  9 10  1  0  0  0
  9 12  1  0  0  0
 10 11  2  0  0  0
 10 25  1  0  0  0
 11 26  1  0  0  0
 12 13  1  0  0  0
 12 27  1  0  0  0
 12 28  1  0  0  0
 13 14  1  0  0  0
 13 21  1  0  0  0
 14 15  1  0  0  0
 14 19  2  0  0  0
 15 16  2  0  0  0
 15 29  1  0  0  0
 16 17  1  0  0  0
 16 30  1  0  0  0
 17 18  2  0  0  0
 17 31  1  0  0  0
 18 19  1  0  0  0
 18 32  1  0  0  0
 19 20  1  0  0  0
 21 33  1  0  0  0
 21 34  1  0  0  0
 21 35  1  0  0  0
 22 36  1  0  0  0
 22 37  1  0  0  0
M  END
>  <Activity>
6.92082

>  <set_rl>
1

>  <Min_dist>
999.9

>  <Avg_dist>
999.9

>  <PC_uM>
0.21

>  <TG_uM>
0.015

>  <RL_uM>
0.12

$$$$
21-14
 Wcorina  11170919323D 1   1.00000     0.00000              
CORINA evaluation license 3.46 0067  05.08.2008
 34 36  0  0  0  0  0  0  0  0999 V2000
   -0.0160    1.3254    0.0093 N   0  0  0  0  0  0
    0.0021   -0.0041    0.0020 C   0  0  0  0  0  0
    1.1123   -0.7135   -0.0124 N   0  0  0  0  0  0
    2.3111   -0.1167   -0.0206 C   0  0  0  0  0  0
    2.3724    1.2970   -0.0136 C   0  0  0  0  0  0
    1.1058    2.0310    0.0024 C   0  0  0  0  0  0
    1.0809    3.4095    0.0096 N   0  0  0  0  0  0
    3.5480    1.9180   -0.0206 N   0  0  0  0  0  0
    4.6727    1.2415   -0.0340 C   0  0  0  0  0  0
    4.6877   -0.1515   -0.0420 C   0  0  0  0  0  0
    3.5112   -0.8476   -0.0355 C   0  0  0  0  0  0
    5.9804    1.9904   -0.0414 C   0  0  0  0  0  0
    6.3324    2.3449   -1.4186 N   0  0  0  0  0  0
    7.5108    3.0479   -1.6793 C   0  0  0  0  0  0
    7.8460    3.3848   -2.9850 C   0  0  0  0  0  0
    9.0116    4.0799   -3.2400 C   0  0  0  0  0  0
    9.8459    4.4406   -2.1978 C   0  0  0  0  0  0
    9.5158    4.1065   -0.8961 C   0  0  0  0  0  0
    8.3469    3.4166   -0.6337 C   0  0  0  0  0  0
   10.5667    4.5605    0.4090 Cl  0  0  0  0  0  0
   -1.2065   -0.6769    0.0104 N   0  0  0  0  0  0
    0.2322    3.8792    0.0199 H   0  0  0  0  0  0
    1.9120    3.9096    0.0043 H   0  0  0  0  0  0
    5.6287   -0.6814   -0.0534 H   0  0  0  0  0  0
    3.5043   -1.9276   -0.0411 H   0  0  0  0  0  0
    5.8826    2.8983    0.5538 H   0  0  0  0  0  0
    6.7623    1.3604    0.3828 H   0  0  0  0  0  0
    5.7471    2.0913   -2.1493 H   0  0  0  0  0  0
    7.1955    3.1030   -3.7998 H   0  0  0  0  0  0
    9.2722    4.3418   -4.2549 H   0  0  0  0  0  0
   10.7571    4.9839   -2.4002 H   0  0  0  0  0  0
    8.0868    3.1604    0.3827 H   0  0  0  0  0  0
   -2.0388   -0.1788    0.0214 H   0  0  0  0  0  0
   -1.2218   -1.6467    0.0054 H   0  0  0  0  0  0
  1  2  1  0  0  0
  1  6  2  0  0  0
  2  3  2  0  0  0
  2 21  1  0  0  0
  3  4  1  0  0  0
  4  5  2  0  0  0
  4 11  1  0  0  0
  5  6  1  0  0  0
  5  8  1  0  0  0
  6  7  1  0  0  0
  7 22  1  0  0  0
  7 23  1  0  0  0
  8  9  2  0  0  0
  9 10  1  0  0  0
  9 12  1  0  0  0
 10 11  2  0  0  0
 10 24  1  0  0  0
 11 25  1  0  0  0
 12 13  1  0  0  0
 12 26  1  0  0  0
 12 27  1  0  0  0
 13 14  1  0  0  0
 13 28  1  0  0  0
 14 15  1  0  0  0
 14 19  2  0  0  0
 15 16  2  0  0  0
 15 29  1  0  0  0
 16 17  1  0  0  0
 16 30  1  0  0  0
 17 18  2  0  0  0
 17 31  1  0  0  0
 18 19  1  0  0  0
 18 20  1  0  0  0
 19 32  1  0  0  0
 21 33  1  0  0  0
 21 34  1  0  0  0
M  END
>  <Activity>
6.85387

>  <set_rl>
1

>  <Min_dist>
999.9

>  <Avg_dist>
999.9

>  <PC_uM>
2

>  <TG_uM>
0.13

>  <RL_uM>
0.14

$$$$
21-16
 Wcorina  11170919323D 1   1.00000     0.00000              
CORINA evaluation license 3.46 0067  05.08.2008
 45 47  0  0  0  0  0  0  0  0999 V2000
   -0.0160    1.3254    0.0093 N   0  0  0  0  0  0
    0.0021   -0.0041    0.0020 C   0  0  0  0  0  0
    1.1123   -0.7135   -0.0124 N   0  0  0  0  0  0
    2.3111   -0.1167   -0.0206 C   0  0  0  0  0  0
    2.3724    1.2970   -0.0136 C   0  0  0  0  0  0
    1.1058    2.0310    0.0024 C   0  0  0  0  0  0
    1.0809    3.4095    0.0096 N   0  0  0  0  0  0
    3.5480    1.9180   -0.0206 N   0  0  0  0  0  0
    4.6727    1.2415   -0.0340 C   0  0  0  0  0  0
    4.6877   -0.1515   -0.0420 C   0  0  0  0  0  0
    3.5112   -0.8476   -0.0355 C   0  0  0  0  0  0
    5.9804    1.9904   -0.0414 C   0  0  0  0  0  0
    6.3334    2.3458   -1.4223 N   0  0  0  0  0  0
    7.4189    3.2331   -1.4511 C   0  0  0  0  0  0
    8.6370    2.8575   -0.9049 C   0  0  0  0  0  0
    9.7069    3.7324   -0.9329 C   0  0  0  0  0  0
    9.5648    4.9869   -1.5068 C   0  0  0  0  0  0
    8.3487    5.3667   -2.0547 C   0  0  0  0  0  0
    7.2765    4.4903   -2.0334 C   0  0  0  0  0  0
    6.0846    4.8589   -2.5751 O   0  0  0  0  0  0
    6.0112    6.1629   -3.1550 C   0  0  0  0  0  0
   10.6190    5.8457   -1.5320 O   0  0  0  0  0  0
   11.8415    5.3895   -0.9494 C   0  0  0  0  0  0
    6.6141    1.1445   -2.2198 C   0  0  0  0  0  0
   -1.2065   -0.6769    0.0104 N   0  0  0  0  0  0
    0.2322    3.8792    0.0199 H   0  0  0  0  0  0
    1.9120    3.9096    0.0043 H   0  0  0  0  0  0
    5.6287   -0.6814   -0.0534 H   0  0  0  0  0  0
    3.5043   -1.9276   -0.0411 H   0  0  0  0  0  0
    5.8826    2.8983    0.5538 H   0  0  0  0  0  0
    6.7623    1.3604    0.3828 H   0  0  0  0  0  0
    8.7497    1.8812   -0.4572 H   0  0  0  0  0  0
   10.6548    3.4386   -0.5068 H   0  0  0  0  0  0
    8.2389    6.3440   -2.5011 H   0  0  0  0  0  0
    5.0087    6.3292   -3.5494 H   0  0  0  0  0  0
    6.2312    6.9118   -2.3942 H   0  0  0  0  0  0
    6.7376    6.2423   -3.9638 H   0  0  0  0  0  0
   12.1805    4.4942   -1.4706 H   0  0  0  0  0  0
   12.5984    6.1690   -1.0361 H   0  0  0  0  0  0
   11.6780    5.1572    0.1030 H   0  0  0  0  0  0
    5.7309    0.5060   -2.2381 H   0  0  0  0  0  0
    6.8726    1.4363   -3.2377 H   0  0  0  0  0  0
    7.4471    0.5998   -1.7753 H   0  0  0  0  0  0
   -2.0388   -0.1788    0.0214 H   0  0  0  0  0  0
   -1.2218   -1.6467    0.0054 H   0  0  0  0  0  0
  1  2  1  0  0  0
  1  6  2  0  0  0
  2  3  2  0  0  0
  2 25  1  0  0  0
  3  4  1  0  0  0
  4  5  2  0  0  0
  4 11  1  0  0  0
  5  6  1  0  0  0
  5  8  1  0  0  0
  6  7  1  0  0  0
  7 26  1  0  0  0
  7 27  1  0  0  0
  8  9  2  0  0  0
  9 10  1  0  0  0
  9 12  1  0  0  0
 10 11  2  0  0  0
 10 28  1  0  0  0
 11 29  1  0  0  0
 12 13  1  0  0  0
 12 30  1  0  0  0
 12 31  1  0  0  0
 13 14  1  0  0  0
 13 24  1  0  0  0
 14 15  1  0  0  0
 14 19  2  0  0  0
 15 16  2  0  0  0
 15 32  1  0  0  0
 16 17  1  0  0  0
 16 33  1  0  0  0
 17 18  2  0  0  0
 17 22  1  0  0  0
 18 19  1  0  0  0
 18 34  1  0  0  0
 19 20  1  0  0  0
 20 21  1  0  0  0
 21 35  1  0  0  0
 21 36  1  0  0  0
 21 37  1  0  0  0
 22 23  1  0  0  0
 23 38  1  0  0  0
 23 39  1  0  0  0
 23 40  1  0  0  0
 24 41  1  0  0  0
 24 42  1  0  0  0
 24 43  1  0  0  0
 25 44  1  0  0  0
 25 45  1  0  0  0
M  END
>  <Activity>
7.79588

>  <set_rl>
1

>  <Min_dist>
999.9

>  <Avg_dist>
999.9

>  <PC_uM>
0.16

>  <TG_uM>
0.014

>  <RL_uM>
0.016

$$$$
21-18
 Wcorina  11170919323D 1   1.00000     0.00000              
CORINA evaluation license 3.46 0067  05.08.2008
 45 47  0  0  0  0  0  0  0  0999 V2000
   -0.0160    1.3254    0.0093 N   0  0  0  0  0  0
    0.0021   -0.0041    0.0020 C   0  0  0  0  0  0
    1.1123   -0.7135   -0.0124 N   0  0  0  0  0  0
    2.3111   -0.1167   -0.0206 C   0  0  0  0  0  0
    2.3724    1.2970   -0.0136 C   0  0  0  0  0  0
    1.1058    2.0310    0.0024 C   0  0  0  0  0  0
    1.0809    3.4095    0.0096 N   0  0  0  0  0  0
    3.5480    1.9180   -0.0206 N   0  0  0  0  0  0
    4.6727    1.2415   -0.0340 C   0  0  0  0  0  0
    4.6877   -0.1515   -0.0420 C   0  0  0  0  0  0
    3.5112   -0.8476   -0.0355 C   0  0  0  0  0  0
    5.9804    1.9904   -0.0414 C   0  0  0  0  0  0
    6.3334    2.3458   -1.4223 N   0  0  0  0  0  0
    7.4167    3.2313   -1.4511 C   0  0  0  0  0  0
    8.6353    2.8563   -0.9049 C   0  0  0  0  0  0
    9.7069    3.7355   -0.9353 C   0  0  0  0  0  0
    9.5607    4.9890   -1.5107 C   0  0  0  0  0  0
    8.3467    5.3653   -2.0554 C   0  0  0  0  0  0
    7.2749    4.4888   -2.0333 C   0  0  0  0  0  0
    6.0822    4.8578   -2.5751 O   0  0  0  0  0  0
    6.0088    6.1617   -3.1551 C   0  0  0  0  0  0
   10.9019    3.3688   -0.4002 O   0  0  0  0  0  0
   11.9627    4.3240   -0.4661 C   0  0  0  0  0  0
    6.6141    1.1445   -2.2198 C   0  0  0  0  0  0
   -1.2065   -0.6769    0.0104 N   0  0  0  0  0  0
    0.2322    3.8792    0.0199 H   0  0  0  0  0  0
    1.9120    3.9096    0.0043 H   0  0  0  0  0  0
    5.6287   -0.6814   -0.0534 H   0  0  0  0  0  0
    3.5043   -1.9276   -0.0411 H   0  0  0  0  0  0
    5.8826    2.8983    0.5538 H   0  0  0  0  0  0
    6.7623    1.3604    0.3828 H   0  0  0  0  0  0
    8.7492    1.8805   -0.4562 H   0  0  0  0  0  0
   10.3965    5.6726   -1.5331 H   0  0  0  0  0  0
    8.2356    6.3421   -2.5024 H   0  0  0  0  0  0
    6.2292    6.9106   -2.3944 H   0  0  0  0  0  0
    6.7350    6.2409   -3.9641 H   0  0  0  0  0  0
    5.0063    6.3281   -3.5492 H   0  0  0  0  0  0
   12.1703    4.5651   -1.5086 H   0  0  0  0  0  0
   11.6696    5.2296    0.0649 H   0  0  0  0  0  0
   12.8574    3.9058   -0.0048 H   0  0  0  0  0  0
    5.7309    0.5060   -2.2381 H   0  0  0  0  0  0
    6.8726    1.4363   -3.2377 H   0  0  0  0  0  0
    7.4471    0.5998   -1.7753 H   0  0  0  0  0  0
   -2.0388   -0.1788    0.0214 H   0  0  0  0  0  0
   -1.2218   -1.6467    0.0054 H   0  0  0  0  0  0
  1  2  1  0  0  0
  1  6  2  0  0  0
  2  3  2  0  0  0
  2 25  1  0  0  0
  3  4  1  0  0  0
  4  5  2  0  0  0
  4 11  1  0  0  0
  5  6  1  0  0  0
  5  8  1  0  0  0
  6  7  1  0  0  0
  7 26  1  0  0  0
  7 27  1  0  0  0
  8  9  2  0  0  0
  9 10  1  0  0  0
  9 12  1  0  0  0
 10 11  2  0  0  0
 10 28  1  0  0  0
 11 29  1  0  0  0
 12 13  1  0  0  0
 12 30  1  0  0  0
 12 31  1  0  0  0
 13 14  1  0  0  0
 13 24  1  0  0  0
 14 15  1  0  0  0
 14 19  2  0  0  0
 15 16  2  0  0  0
 15 32  1  0  0  0
 16 17  1  0  0  0
 16 22  1  0  0  0
 17 18  2  0  0  0
 17 33  1  0  0  0
 18 19  1  0  0  0
 18 34  1  0  0  0
 19 20  1  0  0  0
 20 21  1  0  0  0
 21 35  1  0  0  0
 21 36  1  0  0  0
 21 37  1  0  0  0
 22 23  1  0  0  0
 23 38  1  0  0  0
 23 39  1  0  0  0
 23 40  1  0  0  0
 24 41  1  0  0  0
 24 42  1  0  0  0
 24 43  1  0  0  0
 25 44  1  0  0  0
 25 45  1  0  0  0
M  END
>  <Activity>
7.30103

>  <set_rl>
1

>  <Min_dist>
999.9

>  <Avg_dist>
999.9

>  <PC_uM>
0.21

>  <TG_uM>
0.025

>  <RL_uM>
0.05

$$$$
21-19
 Wcorina  11170919323D 1   1.00000     0.00000              
CORINA evaluation license 3.46 0067  05.08.2008
 42 44  0  0  0  0  0  0  0  0999 V2000
   -0.0160    1.3254    0.0093 N   0  0  0  0  0  0
    0.0021   -0.0041    0.0020 C   0  0  0  0  0  0
    1.1123   -0.7135   -0.0124 N   0  0  0  0  0  0
    2.3111   -0.1167   -0.0206 C   0  0  0  0  0  0
    2.3724    1.2970   -0.0136 C   0  0  0  0  0  0
    1.1058    2.0310    0.0024 C   0  0  0  0  0  0
    1.0809    3.4095    0.0096 N   0  0  0  0  0  0
    3.5480    1.9180   -0.0206 N   0  0  0  0  0  0
    4.6727    1.2415   -0.0340 C   0  0  0  0  0  0
    4.6877   -0.1515   -0.0420 C   0  0  0  0  0  0
    3.5112   -0.8476   -0.0355 C   0  0  0  0  0  0
    5.9804    1.9904   -0.0414 C   0  0  0  0  0  0
    6.3324    2.3449   -1.4186 N   0  0  0  0  0  0
    7.5129    3.0492   -1.6798 C   0  0  0  0  0  0
    8.3508    3.4122   -0.6337 C   0  0  0  0  0  0
    9.5170    4.1083   -0.8900 C   0  0  0  0  0  0
    9.8524    4.4454   -2.1912 C   0  0  0  0  0  0
    9.0150    4.0832   -3.2417 C   0  0  0  0  0  0
    7.8493    3.3801   -2.9854 C   0  0  0  0  0  0
    9.3431    4.4146   -4.5191 O   0  0  0  0  0  0
    8.4368    4.0104   -5.5474 C   0  0  0  0  0  0
   11.0008    5.1313   -2.4419 O   0  0  0  0  0  0
   11.8126    5.4710   -1.3160 C   0  0  0  0  0  0
   -1.2065   -0.6769    0.0104 N   0  0  0  0  0  0
    0.2322    3.8792    0.0199 H   0  0  0  0  0  0
    1.9120    3.9096    0.0043 H   0  0  0  0  0  0
    5.6287   -0.6814   -0.0534 H   0  0  0  0  0  0
    3.5043   -1.9276   -0.0411 H   0  0  0  0  0  0
    5.8826    2.8983    0.5538 H   0  0  0  0  0  0
    6.7623    1.3604    0.3828 H   0  0  0  0  0  0
    5.7471    2.0913   -2.1493 H   0  0  0  0  0  0
    8.0909    3.1506    0.3814 H   0  0  0  0  0  0
   10.1672    4.3901   -0.0751 H   0  0  0  0  0  0
    7.2002    3.0942   -3.7999 H   0  0  0  0  0  0
    8.8168    4.3368   -6.5155 H   0  0  0  0  0  0
    8.3418    2.9246   -5.5417 H   0  0  0  0  0  0
    7.4607    4.4616   -5.3693 H   0  0  0  0  0  0
   11.2407    6.0976   -0.6316 H   0  0  0  0  0  0
   12.1214    4.5603   -0.8028 H   0  0  0  0  0  0
   12.6948    6.0141   -1.6548 H   0  0  0  0  0  0
   -2.0388   -0.1788    0.0214 H   0  0  0  0  0  0
   -1.2218   -1.6467    0.0054 H   0  0  0  0  0  0
  1  2  1  0  0  0
  1  6  2  0  0  0
  2  3  2  0  0  0
  2 24  1  0  0  0
  3  4  1  0  0  0
  4  5  2  0  0  0
  4 11  1  0  0  0
  5  6  1  0  0  0
  5  8  1  0  0  0
  6  7  1  0  0  0
  7 25  1  0  0  0
  7 26  1  0  0  0
  8  9  2  0  0  0
  9 10  1  0  0  0
  9 12  1  0  0  0
 10 11  2  0  0  0
 10 27  1  0  0  0
 11 28  1  0  0  0
 12 13  1  0  0  0
 12 29  1  0  0  0
 12 30  1  0  0  0
 13 14  1  0  0  0
 13 31  1  0  0  0
 14 15  1  0  0  0
 14 19  2  0  0  0
 15 16  2  0  0  0
 15 32  1  0  0  0
 16 17  1  0  0  0
 16 33  1  0  0  0
 17 18  2  0  0  0
 17 22  1  0  0  0
 18 19  1  0  0  0
 18 20  1  0  0  0
 19 34  1  0  0  0
 20 21  1  0  0  0
 21 35  1  0  0  0
 21 36  1  0  0  0
 21 37  1  0  0  0
 22 23  1  0  0  0
 23 38  1  0  0  0
 23 39  1  0  0  0
 23 40  1  0  0  0
 24 41  1  0  0  0
 24 42  1  0  0  0
M  END
>  <Activity>
7.22185

>  <set_rl>
1

>  <Min_dist>
999.9

>  <Avg_dist>
999.9

>  <PC_uM>
0.9

>  <TG_uM>
0.09

>  <RL_uM>
0.06

$$$$
21-21
 Wcorina  11170919323D 1   1.00000     0.00000              
CORINA evaluation license 3.46 0067  05.08.2008
 34 36  0  0  0  0  0  0  0  0999 V2000
   -0.0160    1.3254    0.0093 N   0  0  0  0  0  0
    0.0021   -0.0041    0.0020 C   0  0  0  0  0  0
    1.1123   -0.7135   -0.0124 N   0  0  0  0  0  0
    2.3111   -0.1167   -0.0206 C   0  0  0  0  0  0
    2.3724    1.2970   -0.0136 C   0  0  0  0  0  0
    1.1058    2.0310    0.0024 C   0  0  0  0  0  0
    1.0809    3.4095    0.0096 N   0  0  0  0  0  0
    3.5480    1.9180   -0.0206 N   0  0  0  0  0  0
    4.6727    1.2415   -0.0340 C   0  0  0  0  0  0
    4.6877   -0.1515   -0.0420 C   0  0  0  0  0  0
    3.5112   -0.8476   -0.0355 C   0  0  0  0  0  0
    5.9804    1.9904   -0.0414 C   0  0  0  0  0  0
    6.3324    2.3449   -1.4186 N   0  0  0  0  0  0
    7.5120    3.0487   -1.6796 C   0  0  0  0  0  0
    8.3510    3.4123   -0.6345 C   0  0  0  0  0  0
    9.5156    4.1076   -0.8950 C   0  0  0  0  0  0
    9.8474    4.4421   -2.1962 C   0  0  0  0  0  0
    9.0138    4.0818   -3.2401 C   0  0  0  0  0  0
    7.8501    3.3806   -2.9861 C   0  0  0  0  0  0
    6.8084    2.9214   -4.2968 Cl  0  0  0  0  0  0
   11.3122    5.3160   -2.5194 Cl  0  0  0  0  0  0
   -1.2065   -0.6769    0.0104 N   0  0  0  0  0  0
    0.2322    3.8792    0.0199 H   0  0  0  0  0  0
    1.9120    3.9096    0.0043 H   0  0  0  0  0  0
    5.6287   -0.6814   -0.0534 H   0  0  0  0  0  0
    3.5043   -1.9276   -0.0411 H   0  0  0  0  0  0
    5.8826    2.8983    0.5538 H   0  0  0  0  0  0
    6.7623    1.3604    0.3828 H   0  0  0  0  0  0
    5.7471    2.0913   -2.1493 H   0  0  0  0  0  0
    8.0927    3.1520    0.3814 H   0  0  0  0  0  0
   10.1680    4.3908   -0.0822 H   0  0  0  0  0  0
    9.2748    4.3448   -4.2546 H   0  0  0  0  0  0
   -2.0388   -0.1788    0.0214 H   0  0  0  0  0  0
   -1.2218   -1.6467    0.0054 H   0  0  0  0  0  0
  1  2  1  0  0  0
  1  6  2  0  0  0
  2  3  2  0  0  0
  2 22  1  0  0  0
  3  4  1  0  0  0
  4  5  2  0  0  0
  4 11  1  0  0  0
  5  6  1  0  0  0
  5  8  1  0  0  0
  6  7  1  0  0  0
  7 23  1  0  0  0
  7 24  1  0  0  0
  8  9  2  0  0  0
  9 10  1  0  0  0
  9 12  1  0  0  0
 10 11  2  0  0  0
 10 25  1  0  0  0
 11 26  1  0  0  0
 12 13  1  0  0  0
 12 27  1  0  0  0
 12 28  1  0  0  0
 13 14  1  0  0  0
 13 29  1  0  0  0
 14 15  1  0  0  0
 14 19  2  0  0  0
 15 16  2  0  0  0
 15 30  1  0  0  0
 16 17  1  0  0  0
 16 31  1  0  0  0
 17 18  2  0  0  0
 17 21  1  0  0  0
 18 19  1  0  0  0
 18 32  1  0  0  0
 19 20  1  0  0  0
 22 33  1  0  0  0
 22 34  1  0  0  0
M  END
>  <Activity>
7.05552

>  <set_rl>
1

>  <Min_dist>
999.9

>  <Avg_dist>
999.9

>  <PC_uM>
0.73

>  <TG_uM>
0.05

>  <RL_uM>
0.088

$$$$
21-23
 Wcorina  11170919323D 1   1.00000     0.00000              
CORINA evaluation license 3.46 0067  05.08.2008
 34 36  0  0  0  0  0  0  0  0999 V2000
   -0.0160    1.3254    0.0093 N   0  0  0  0  0  0
    0.0021   -0.0041    0.0020 C   0  0  0  0  0  0
    1.1123   -0.7135   -0.0124 N   0  0  0  0  0  0
    2.3111   -0.1167   -0.0206 C   0  0  0  0  0  0
    2.3724    1.2970   -0.0136 C   0  0  0  0  0  0
    1.1058    2.0310    0.0024 C   0  0  0  0  0  0
    1.0809    3.4095    0.0096 N   0  0  0  0  0  0
    3.5480    1.9180   -0.0206 N   0  0  0  0  0  0
    4.6727    1.2415   -0.0340 C   0  0  0  0  0  0
    4.6877   -0.1515   -0.0420 C   0  0  0  0  0  0
    3.5112   -0.8476   -0.0355 C   0  0  0  0  0  0
    5.9804    1.9904   -0.0414 C   0  0  0  0  0  0
    6.3324    2.3449   -1.4186 N   0  0  0  0  0  0
    7.5114    3.0483   -1.6795 C   0  0  0  0  0  0
    8.3504    3.4120   -0.6345 C   0  0  0  0  0  0
    9.5161    4.1073   -0.8960 C   0  0  0  0  0  0
    9.8471    4.4414   -2.1978 C   0  0  0  0  0  0
    9.0138    4.0807   -3.2404 C   0  0  0  0  0  0
    7.8497    3.3803   -2.9861 C   0  0  0  0  0  0
    6.8075    2.9221   -4.2967 Cl  0  0  0  0  0  0
   10.5657    4.5626    0.4096 Cl  0  0  0  0  0  0
   -1.2065   -0.6769    0.0104 N   0  0  0  0  0  0
    0.2322    3.8792    0.0199 H   0  0  0  0  0  0
    1.9120    3.9096    0.0043 H   0  0  0  0  0  0
    5.6287   -0.6814   -0.0534 H   0  0  0  0  0  0
    3.5043   -1.9276   -0.0411 H   0  0  0  0  0  0
    5.8826    2.8983    0.5538 H   0  0  0  0  0  0
    6.7623    1.3604    0.3828 H   0  0  0  0  0  0
    5.7471    2.0913   -2.1493 H   0  0  0  0  0  0
    8.0923    3.1523    0.3816 H   0  0  0  0  0  0
   10.7581    4.9853   -2.3995 H   0  0  0  0  0  0
    9.2747    4.3431   -4.2550 H   0  0  0  0  0  0
   -2.0388   -0.1788    0.0214 H   0  0  0  0  0  0
   -1.2218   -1.6467    0.0054 H   0  0  0  0  0  0
  1  2  1  0  0  0
  1  6  2  0  0  0
  2  3  2  0  0  0
  2 22  1  0  0  0
  3  4  1  0  0  0
  4  5  2  0  0  0
  4 11  1  0  0  0
  5  6  1  0  0  0
  5  8  1  0  0  0
  6  7  1  0  0  0
  7 23  1  0  0  0
  7 24  1  0  0  0
  8  9  2  0  0  0
  9 10  1  0  0  0
  9 12  1  0  0  0
 10 11  2  0  0  0
 10 25  1  0  0  0
 11 26  1  0  0  0
 12 13  1  0  0  0
 12 27  1  0  0  0
 12 28  1  0  0  0
 13 14  1  0  0  0
 13 29  1  0  0  0
 14 15  1  0  0  0
 14 19  2  0  0  0
 15 16  2  0  0  0
 15 30  1  0  0  0
 16 17  1  0  0  0
 16 21  1  0  0  0
 17 18  2  0  0  0
 17 31  1  0  0  0
 18 19  1  0  0  0
 18 32  1  0  0  0
 19 20  1  0  0  0
 22 33  1  0  0  0
 22 34  1  0  0  0
M  END
>  <Activity>
6.69897

>  <set_rl>
1

>  <Min_dist>
999.9

>  <Avg_dist>
999.9

>  <PC_uM>
1.6

>  <TG_uM>
0.091

>  <RL_uM>
0.2

$$$$
21-27
 Wcorina  11170919323D 1   1.00000     0.00000              
CORINA evaluation license 3.46 0067  05.08.2008
 34 36  0  0  0  0  0  0  0  0999 V2000
   -0.0160    1.3254    0.0093 N   0  0  0  0  0  0
    0.0021   -0.0041    0.0020 C   0  0  0  0  0  0
    1.1123   -0.7135   -0.0124 N   0  0  0  0  0  0
    2.3111   -0.1167   -0.0206 C   0  0  0  0  0  0
    2.3724    1.2970   -0.0136 C   0  0  0  0  0  0
    1.1058    2.0310    0.0024 C   0  0  0  0  0  0
    1.0809    3.4095    0.0096 N   0  0  0  0  0  0
    3.5480    1.9180   -0.0206 N   0  0  0  0  0  0
    4.6727    1.2415   -0.0340 C   0  0  0  0  0  0
    4.6877   -0.1515   -0.0420 C   0  0  0  0  0  0
    3.5112   -0.8476   -0.0355 C   0  0  0  0  0  0
    5.9804    1.9904   -0.0414 C   0  0  0  0  0  0
    6.3324    2.3449   -1.4186 N   0  0  0  0  0  0
    7.5114    3.0483   -1.6795 C   0  0  0  0  0  0
    7.8462    3.3850   -2.9850 C   0  0  0  0  0  0
    9.0118    4.0801   -3.2407 C   0  0  0  0  0  0
    9.8468    4.4412   -2.1980 C   0  0  0  0  0  0
    9.5160    4.1071   -0.8954 C   0  0  0  0  0  0
    8.3473    3.4168   -0.6337 C   0  0  0  0  0  0
   10.5659    4.5618    0.4101 Cl  0  0  0  0  0  0
   11.3118    5.3139   -2.5233 Cl  0  0  0  0  0  0
   -1.2065   -0.6769    0.0104 N   0  0  0  0  0  0
    0.2322    3.8792    0.0199 H   0  0  0  0  0  0
    1.9120    3.9096    0.0043 H   0  0  0  0  0  0
    5.6287   -0.6814   -0.0534 H   0  0  0  0  0  0
    3.5043   -1.9276   -0.0411 H   0  0  0  0  0  0
    5.8826    2.8983    0.5538 H   0  0  0  0  0  0
    6.7623    1.3604    0.3828 H   0  0  0  0  0  0
    5.7471    2.0913   -2.1493 H   0  0  0  0  0  0
    7.1956    3.1030   -3.7996 H   0  0  0  0  0  0
    9.2722    4.3419   -4.2556 H   0  0  0  0  0  0
    8.0870    3.1601    0.3826 H   0  0  0  0  0  0
   -2.0388   -0.1788    0.0214 H   0  0  0  0  0  0
   -1.2218   -1.6467    0.0054 H   0  0  0  0  0  0
  1  2  1  0  0  0
  1  6  2  0  0  0
  2  3  2  0  0  0
  2 22  1  0  0  0
  3  4  1  0  0  0
  4  5  2  0  0  0
  4 11  1  0  0  0
  5  6  1  0  0  0
  5  8  1  0  0  0
  6  7  1  0  0  0
  7 23  1  0  0  0
  7 24  1  0  0  0
  8  9  2  0  0  0
  9 10  1  0  0  0
  9 12  1  0  0  0
 10 11  2  0  0  0
 10 25  1  0  0  0
 11 26  1  0  0  0
 12 13  1  0  0  0
 12 27  1  0  0  0
 12 28  1  0  0  0
 13 14  1  0  0  0
 13 29  1  0  0  0
 14 15  1  0  0  0
 14 19  2  0  0  0
 15 16  2  0  0  0
 15 30  1  0  0  0
 16 17  1  0  0  0
 16 31  1  0  0  0
 17 18  2  0  0  0
 17 21  1  0  0  0
 18 19  1  0  0  0
 18 20  1  0  0  0
 19 32  1  0  0  0
 22 33  1  0  0  0
 22 34  1  0  0  0
M  END
>  <Activity>
7.26761

>  <set_rl>
1

>  <Min_dist>
999.9

>  <Avg_dist>
999.9

>  <PC_uM>
0.41

>  <TG_uM>
0.057

>  <RL_uM>
0.054

$$$$
21-38
 Wcorina  11170919323D 1   1.00000     0.00000              
CORINA evaluation license 3.46 0067  05.08.2008
 43 46  0  0  0  0  0  0  0  0999 V2000
   -0.0160    1.3254    0.0093 N   0  0  0  0  0  0
    0.0021   -0.0041    0.0020 C   0  0  0  0  0  0
    1.1123   -0.7135   -0.0124 N   0  0  0  0  0  0
    2.3111   -0.1167   -0.0206 C   0  0  0  0  0  0
    2.3724    1.2970   -0.0136 C   0  0  0  0  0  0
    1.1058    2.0310    0.0024 C   0  0  0  0  0  0
    1.0809    3.4095    0.0096 N   0  0  0  0  0  0
    3.5480    1.9180   -0.0206 N   0  0  0  0  0  0
    4.6727    1.2415   -0.0340 C   0  0  0  0  0  0
    4.6877   -0.1515   -0.0420 C   0  0  0  0  0  0
    3.5112   -0.8476   -0.0355 C   0  0  0  0  0  0
    5.9804    1.9904   -0.0414 C   0  0  0  0  0  0
    6.3334    2.3458   -1.4223 N   0  0  0  0  0  0
    7.4119    3.2273   -1.4509 C   0  0  0  0  0  0
    8.6255    2.8597   -0.9095 C   0  0  0  0  0  0
    9.7086    3.7328   -0.9330 C   0  0  0  0  0  0
    9.6016    4.9712   -1.4890 C   0  0  0  0  0  0
    8.3823    5.3849   -2.0516 C   0  0  0  0  0  0
    7.2738    4.5027   -2.0395 C   0  0  0  0  0  0
    6.0583    4.9149   -2.6076 C   0  0  0  0  0  0
    5.9613    6.1523   -3.1673 C   0  0  0  0  0  0
    7.0527    7.0185   -3.1856 C   0  0  0  0  0  0
    8.2429    6.6573   -2.6328 C   0  0  0  0  0  0
    6.6141    1.1445   -2.2198 C   0  0  0  0  0  0
   -1.2065   -0.6769    0.0104 N   0  0  0  0  0  0
    0.2322    3.8792    0.0199 H   0  0  0  0  0  0
    1.9120    3.9096    0.0043 H   0  0  0  0  0  0
    5.6287   -0.6814   -0.0534 H   0  0  0  0  0  0
    3.5043   -1.9276   -0.0411 H   0  0  0  0  0  0
    5.8826    2.8983    0.5538 H   0  0  0  0  0  0
    6.7623    1.3604    0.3828 H   0  0  0  0  0  0
    8.7365    1.8831   -0.4618 H   0  0  0  0  0  0
   10.6497    3.4232   -0.5029 H   0  0  0  0  0  0
   10.4533    5.6353   -1.4971 H   0  0  0  0  0  0
    5.2044    4.2537   -2.6012 H   0  0  0  0  0  0
    5.0248    6.4670   -3.6038 H   0  0  0  0  0  0
    6.9498    7.9947   -3.6360 H   0  0  0  0  0  0
    9.0800    7.3394   -2.6531 H   0  0  0  0  0  0
    5.7309    0.5060   -2.2381 H   0  0  0  0  0  0
    6.8726    1.4363   -3.2377 H   0  0  0  0  0  0
    7.4471    0.5998   -1.7753 H   0  0  0  0  0  0
   -2.0388   -0.1788    0.0214 H   0  0  0  0  0  0
   -1.2218   -1.6467    0.0054 H   0  0  0  0  0  0
  1  2  1  0  0  0
  1  6  2  0  0  0
  2  3  2  0  0  0
  2 25  1  0  0  0
  3  4  1  0  0  0
  4  5  2  0  0  0
  4 11  1  0  0  0
  5  6  1  0  0  0
  5  8  1  0  0  0
  6  7  1  0  0  0
  7 26  1  0  0  0
  7 27  1  0  0  0
  8  9  2  0  0  0
  9 10  1  0  0  0
  9 12  1  0  0  0
 10 11  2  0  0  0
 10 28  1  0  0  0
 11 29  1  0  0  0
 12 13  1  0  0  0
 12 30  1  0  0  0
 12 31  1  0  0  0
 13 14  1  0  0  0
 13 24  1  0  0  0
 14 15  1  0  0  0
 14 19  2  0  0  0
 15 16  2  0  0  0
 15 32  1  0  0  0
 16 17  1  0  0  0
 16 33  1  0  0  0
 17 18  2  0  0  0
 17 34  1  0  0  0
 18 19  1  0  0  0
 18 23  1  0  0  0
 19 20  1  0  0  0
 20 21  2  0  0  0
 20 35  1  0  0  0
 21 22  1  0  0  0
 21 36  1  0  0  0
 22 23  2  0  0  0
 22 37  1  0  0  0
 23 38  1  0  0  0
 24 39  1  0  0  0
 24 40  1  0  0  0
 24 41  1  0  0  0
 25 42  1  0  0  0
 25 43  1  0  0  0
M  END
>  <Activity>
8.13668

>  <set_rl>
1

>  <Min_dist>
999.9

>  <Avg_dist>
999.9

>  <PC_uM>
0.04

>  <TG_uM>
0.018

>  <RL_uM>
0.0073

$$$$
21-40
 Wcorina  11170919323D 1   1.00000     0.00000              
CORINA evaluation license 3.46 0067  05.08.2008
 39 41  0  0  0  0  0  0  0  0999 V2000
    0.0109    1.2681    0.0397 N   0  0  0  0  0  0
    0.0324   -0.0612    0.0173 C   0  0  0  0  0  0
    1.1444   -0.7674   -0.0125 N   0  0  0  0  0  0
    2.3415   -0.1674   -0.0220 C   0  0  0  0  0  0
    2.3992    1.2463    0.0005 C   0  0  0  0  0  0
    1.1308    1.9767    0.0332 C   0  0  0  0  0  0
    1.1023    3.3549    0.0561 N   0  0  0  0  0  0
    3.5730    1.8705   -0.0073 N   0  0  0  0  0  0
    4.6994    1.1973   -0.0358 C   0  0  0  0  0  0
    4.7180   -0.1955   -0.0596 C   0  0  0  0  0  0
    3.5434   -0.8948   -0.0531 C   0  0  0  0  0  0
    6.0051    1.9497   -0.0435 C   0  0  0  0  0  0
    6.3469    2.3205   -1.4189 N   0  0  0  0  0  0
    7.5151    3.0257   -1.6781 C   0  0  0  0  0  0
    7.8382    3.3773   -2.9869 C   0  0  0  0  0  0
    8.9855    4.0709   -3.2462 C   0  0  0  0  0  0
    9.8382    4.4289   -2.1937 C   0  0  0  0  0  0
    9.5094    4.0733   -0.8790 C   0  0  0  0  0  0
    8.3575    3.3843   -0.6281 C   0  0  0  0  0  0
   11.0725    5.1740   -2.4676 C   0  0  0  0  0  0
   11.4071    5.3933   -3.6128 O   0  0  0  0  0  0
   11.9243    5.6666   -1.3262 C   0  0  0  0  0  0
   -1.1744   -0.7373    0.0261 N   0  0  0  0  0  0
    0.2525    3.8222    0.0773 H   0  0  0  0  0  0
    1.9320    3.8574    0.0509 H   0  0  0  0  0  0
    5.6603   -0.7228   -0.0832 H   0  0  0  0  0  0
    3.5393   -1.9747   -0.0708 H   0  0  0  0  0  0
    5.9089    2.8506    0.5625 H   0  0  0  0  0  0
    6.7914    1.3171    0.3684 H   0  0  0  0  0  0
    5.7574    2.0736   -2.1486 H   0  0  0  0  0  0
    7.1805    3.1006   -3.7976 H   0  0  0  0  0  0
    9.2354    4.3428   -4.2611 H   0  0  0  0  0  0
   10.1641    4.3469   -0.0648 H   0  0  0  0  0  0
    8.1010    3.1135    0.3855 H   0  0  0  0  0  0
   11.4208    5.4605   -0.3817 H   0  0  0  0  0  0
   12.8867    5.1551   -1.3439 H   0  0  0  0  0  0
   12.0817    6.7404   -1.4273 H   0  0  0  0  0  0
   -2.0079   -0.2416    0.0482 H   0  0  0  0  0  0
   -1.1871   -1.7071    0.0103 H   0  0  0  0  0  0
  1  2  1  0  0  0
  1  6  2  0  0  0
  2  3  2  0  0  0
  2 23  1  0  0  0
  3  4  1  0  0  0
  4  5  2  0  0  0
  4 11  1  0  0  0
  5  6  1  0  0  0
  5  8  1  0  0  0
  6  7  1  0  0  0
  7 24  1  0  0  0
  7 25  1  0  0  0
  8  9  2  0  0  0
  9 10  1  0  0  0
  9 12  1  0  0  0
 10 11  2  0  0  0
 10 26  1  0  0  0
 11 27  1  0  0  0
 12 13  1  0  0  0
 12 28  1  0  0  0
 12 29  1  0  0  0
 13 14  1  0  0  0
 13 30  1  0  0  0
 14 15  1  0  0  0
 14 19  2  0  0  0
 15 16  2  0  0  0
 15 31  1  0  0  0
 16 17  1  0  0  0
 16 32  1  0  0  0
 17 18  2  0  0  0
 17 20  1  0  0  0
 18 19  1  0  0  0
 18 33  1  0  0  0
 19 34  1  0  0  0
 20 21  2  0  0  0
 20 22  1  0  0  0
 22 35  1  0  0  0
 22 36  1  0  0  0
 22 37  1  0  0  0
 23 38  1  0  0  0
 23 39  1  0  0  0
M  END
>  <Activity>
8.60206

>  <set_rl>
1

>  <Min_dist>
999.9

>  <Avg_dist>
999.9

>  <PC_uM>
0.41

>  <TG_uM>
0.027

>  <RL_uM>
0.0025

$$$$
21-42
 Wcorina  11170919323D 1   1.00000     0.00000              
CORINA evaluation license 3.46 0067  05.08.2008
 41 43  0  0  0  0  0  0  0  0999 V2000
   -0.0160    1.3254    0.0093 N   0  0  0  0  0  0
    0.0021   -0.0041    0.0020 C   0  0  0  0  0  0
    1.1123   -0.7135   -0.0124 N   0  0  0  0  0  0
    2.3111   -0.1167   -0.0206 C   0  0  0  0  0  0
    2.3724    1.2970   -0.0136 C   0  0  0  0  0  0
    1.1058    2.0310    0.0024 C   0  0  0  0  0  0
    1.0809    3.4095    0.0096 N   0  0  0  0  0  0
    3.5480    1.9180   -0.0206 N   0  0  0  0  0  0
    4.6727    1.2415   -0.0340 C   0  0  0  0  0  0
    4.6877   -0.1515   -0.0420 C   0  0  0  0  0  0
    3.5112   -0.8476   -0.0355 C   0  0  0  0  0  0
    5.9804    1.9904   -0.0414 C   0  0  0  0  0  0
    6.3324    2.3449   -1.4186 N   0  0  0  0  0  0
    5.9046    3.5526   -1.9560 C   0  0  0  0  0  0
    6.2405    3.8877   -3.2661 C   0  0  0  0  0  0
    5.8222    5.0735   -3.7982 C   0  0  0  0  0  0
    5.0537    5.9537   -3.0249 C   0  0  0  0  0  0
    4.7178    5.6125   -1.7080 C   0  0  0  0  0  0
    5.1362    4.4225   -1.1854 C   0  0  0  0  0  0
    4.6023    7.2295   -3.5924 C   0  0  0  0  0  0
    4.8944    7.5234   -4.7325 O   0  0  0  0  0  0
    3.7758    8.1746   -2.7588 C   0  0  0  0  0  0
    7.0752    1.4949   -2.1682 C   0  0  0  0  0  0
    7.7187    0.7585   -2.8177 C   0  0  0  0  0  0
   -1.2065   -0.6769    0.0104 N   0  0  0  0  0  0
    0.2322    3.8792    0.0199 H   0  0  0  0  0  0
    1.9120    3.9096    0.0043 H   0  0  0  0  0  0
    5.6287   -0.6814   -0.0534 H   0  0  0  0  0  0
    3.5043   -1.9276   -0.0411 H   0  0  0  0  0  0
    5.8826    2.8983    0.5538 H   0  0  0  0  0  0
    6.7623    1.3604    0.3828 H   0  0  0  0  0  0
    6.8329    3.2087   -3.8614 H   0  0  0  0  0  0
    6.0836    5.3328   -4.8135 H   0  0  0  0  0  0
    4.1259    6.2882   -1.1085 H   0  0  0  0  0  0
    4.8746    4.1570   -0.1717 H   0  0  0  0  0  0
    4.3398    8.4655   -1.8726 H   0  0  0  0  0  0
    3.5369    9.0620   -3.3450 H   0  0  0  0  0  0
    2.8529    7.6799   -2.4560 H   0  0  0  0  0  0
    8.2942    0.0999   -3.3986 H   0  0  0  0  0  0
   -2.0388   -0.1788    0.0214 H   0  0  0  0  0  0
   -1.2218   -1.6467    0.0054 H   0  0  0  0  0  0
  1  2  1  0  0  0
  1  6  2  0  0  0
  2  3  2  0  0  0
  2 25  1  0  0  0
  3  4  1  0  0  0
  4  5  2  0  0  0
  4 11  1  0  0  0
  5  6  1  0  0  0
  5  8  1  0  0  0
  6  7  1  0  0  0
  7 26  1  0  0  0
  7 27  1  0  0  0
  8  9  2  0  0  0
  9 10  1  0  0  0
  9 12  1  0  0  0
 10 11  2  0  0  0
 10 28  1  0  0  0
 11 29  1  0  0  0
 12 13  1  0  0  0
 12 30  1  0  0  0
 12 31  1  0  0  0
 13 14  1  0  0  0
 13 23  1  0  0  0
 14 15  1  0  0  0
 14 19  2  0  0  0
 15 16  2  0  0  0
 15 32  1  0  0  0
 16 17  1  0  0  0
 16 33  1  0  0  0
 17 18  2  0  0  0
 17 20  1  0  0  0
 18 19  1  0  0  0
 18 34  1  0  0  0
 19 35  1  0  0  0
 20 21  2  0  0  0
 20 22  1  0  0  0
 22 36  1  0  0  0
 22 37  1  0  0  0
 22 38  1  0  0  0
 23 24  3  0  0  0
 24 39  1  0  0  0
 25 40  1  0  0  0
 25 41  1  0  0  0
M  END
>  <Activity>
7.82391

>  <set_rl>
1

>  <Min_dist>
999.9

>  <Avg_dist>
999.9

>  <PC_uM>
0.22

>  <TG_uM>
0.02

>  <RL_uM>
0.015

$$$$
21-43
 Wcorina  11170919323D 1   1.00000     0.00000              
CORINA evaluation license 3.46 0067  05.08.2008
 42 44  0  0  0  0  0  0  0  0999 V2000
   -1.1255    1.6477   -1.3128 N   0  0  0  0  0  0
   -1.2204    0.3242   -1.3970 C   0  0  0  0  0  0
   -0.1942   -0.4872   -1.2401 N   0  0  0  0  0  0
    1.0292   -0.0085   -0.9809 C   0  0  0  0  0  0
    1.2090    1.3912   -0.8765 C   0  0  0  0  0  0
    0.0319    2.2420   -1.0606 C   0  0  0  0  0  0
    0.1243    3.6150   -0.9748 N   0  0  0  0  0  0
    2.4116    1.8963   -0.6191 N   0  0  0  0  0  0
    3.4545    1.1162   -0.4564 C   0  0  0  0  0  0
    3.3513   -0.2703   -0.5457 C   0  0  0  0  0  0
    2.1414   -0.8499   -0.8083 C   0  0  0  0  0  0
    4.7973    1.7357   -0.1661 C   0  0  0  0  0  0
    5.4435    2.1131   -1.4256 N   0  0  0  0  0  0
    5.2356    3.3776   -1.9611 C   0  0  0  0  0  0
    5.8510    3.7345   -3.1589 C   0  0  0  0  0  0
    5.6490    4.9764   -3.6891 C   0  0  0  0  0  0
    4.8213    5.8925   -3.0267 C   0  0  0  0  0  0
    4.2043    5.5295   -1.8223 C   0  0  0  0  0  0
    4.4076    4.2836   -1.3018 C   0  0  0  0  0  0
    4.6016    7.2286   -3.5925 C   0  0  0  0  0  0
    4.6696    7.3981   -4.7918 O   0  0  0  0  0  0
    4.2916    8.3901   -2.6837 C   0  0  0  0  0  0
    2.9906    8.8413   -2.9309 F   0  0  0  0  0  0
    4.3976    7.9802   -1.3503 F   0  0  0  0  0  0
    5.1988    9.4271   -2.9263 F   0  0  0  0  0  0
    6.3089    1.1567   -2.1202 C   0  0  0  0  0  0
   -2.4601   -0.2293   -1.6625 N   0  0  0  0  0  0
   -0.6661    4.1631   -1.0999 H   0  0  0  0  0  0
    0.9799    4.0328   -0.7894 H   0  0  0  0  0  0
    4.2270   -0.8871   -0.4075 H   0  0  0  0  0  0
    2.0432   -1.9230   -0.8806 H   0  0  0  0  0  0
    4.6621    2.6226    0.4529 H   0  0  0  0  0  0
    5.4230    1.0161    0.3619 H   0  0  0  0  0  0
    6.4891    3.0278   -3.6686 H   0  0  0  0  0  0
    6.1268    5.2523   -4.6175 H   0  0  0  0  0  0
    3.5659    6.2327   -1.3082 H   0  0  0  0  0  0
    3.9289    4.0013   -0.3758 H   0  0  0  0  0  0
    5.7126    0.5650   -2.8148 H   0  0  0  0  0  0
    7.0788    1.6970   -2.6712 H   0  0  0  0  0  0
    6.7793    0.4966   -1.3915 H   0  0  0  0  0  0
   -3.2323    0.3455   -1.7821 H   0  0  0  0  0  0
   -2.5571   -1.1921   -1.7292 H   0  0  0  0  0  0
  1  2  1  0  0  0
  1  6  2  0  0  0
  2  3  2  0  0  0
  2 27  1  0  0  0
  3  4  1  0  0  0
  4  5  2  0  0  0
  4 11  1  0  0  0
  5  6  1  0  0  0
  5  8  1  0  0  0
  6  7  1  0  0  0
  7 28  1  0  0  0
  7 29  1  0  0  0
  8  9  2  0  0  0
  9 10  1  0  0  0
  9 12  1  0  0  0
 10 11  2  0  0  0
 10 30  1  0  0  0
 11 31  1  0  0  0
 12 13  1  0  0  0
 12 32  1  0  0  0
 12 33  1  0  0  0
 13 14  1  0  0  0
 13 26  1  0  0  0
 14 15  1  0  0  0
 14 19  2  0  0  0
 15 16  2  0  0  0
 15 34  1  0  0  0
 16 17  1  0  0  0
 16 35  1  0  0  0
 17 18  2  0  0  0
 17 20  1  0  0  0
 18 19  1  0  0  0
 18 36  1  0  0  0
 19 37  1  0  0  0
 20 21  2  0  0  0
 20 22  1  0  0  0
 22 23  1  0  0  0
 22 24  1  0  0  0
 22 25  1  0  0  0
 26 38  1  0  0  0
 26 39  1  0  0  0
 26 40  1  0  0  0
 27 41  1  0  0  0
 27 42  1  0  0  0
M  END
>  <Activity>
7.49485

>  <set_rl>
1

>  <Min_dist>
999.9

>  <Avg_dist>
999.9

>  <PC_uM>
0.25

>  <TG_uM>
0.046

>  <RL_uM>
0.032

$$$$
22-6
 Wcorina  11170919323D 1   1.00000     0.00000              
CORINA evaluation license 3.46 0067  05.08.2008
 38 40  0  0  0  0  0  0  0  0999 V2000
    6.3252    3.3547   -6.1835 N   0  0  0  0  0  0
    6.7709    2.1619   -6.5678 C   0  0  0  0  0  0
    7.0289    1.1904   -5.7135 N   0  0  0  0  0  0
    6.8470    1.3768   -4.3990 C   0  0  0  0  0  0
    6.3752    2.6279   -3.9420 C   0  0  0  0  0  0
    6.1142    3.6354   -4.9073 C   0  0  0  0  0  0
    5.6519    4.8780   -4.5242 N   0  0  0  0  0  0
    6.1853    2.8393   -2.6397 N   0  0  0  0  0  0
    6.4307    1.8947   -1.7532 C   0  0  0  0  0  0
    6.9004    0.6318   -2.1410 C   0  0  0  0  0  0
    7.1121    0.3615   -3.4606 C   0  0  0  0  0  0
    6.1632    2.2269   -0.0436 S   0  0  0  0  0  0
    5.7692    3.9442   -0.0304 C   0  0  0  0  0  0
    4.4469    4.3544   -0.1441 C   0  0  0  0  0  0
    4.1364    5.7008   -0.1339 C   0  0  0  0  0  0
    5.1432    6.6447   -0.0103 C   0  0  0  0  0  0
    6.4689    6.2373    0.1038 C   0  0  0  0  0  0
    6.7800    4.8877    0.0994 C   0  0  0  0  0  0
    7.4575    7.1632    0.2242 O   0  0  0  0  0  0
    8.7951    6.6732    0.3371 C   0  0  0  0  0  0
    4.8356    7.9702   -0.0009 O   0  0  0  0  0  0
    3.4546    8.3166   -0.1225 C   0  0  0  0  0  0
    6.9715    1.9305   -7.9179 N   0  0  0  0  0  0
    5.4777    5.5581   -5.1936 H   0  0  0  0  0  0
    5.5013    5.0713   -3.5857 H   0  0  0  0  0  0
    7.0945   -0.1254   -1.3958 H   0  0  0  0  0  0
    7.4732   -0.6058   -3.7774 H   0  0  0  0  0  0
    3.6607    3.6202   -0.2409 H   0  0  0  0  0  0
    3.1078    6.0178   -0.2228 H   0  0  0  0  0  0
    7.8078    4.5695    0.1922 H   0  0  0  0  0  0
    9.0451    6.0916   -0.5503 H   0  0  0  0  0  0
    9.4836    7.5135    0.4265 H   0  0  0  0  0  0
    8.8770    6.0407    1.2210 H   0  0  0  0  0  0
    3.0652    7.9323   -1.0653 H   0  0  0  0  0  0
    2.8963    7.8805    0.7059 H   0  0  0  0  0  0
    3.3488    9.4013   -0.1009 H   0  0  0  0  0  0
    6.7875    2.6315   -8.5626 H   0  0  0  0  0  0
    7.2960    1.0675   -8.2191 H   0  0  0  0  0  0
  1  2  1  0  0  0
  1  6  2  0  0  0
  2  3  2  0  0  0
  2 23  1  0  0  0
  3  4  1  0  0  0
  4  5  2  0  0  0
  4 11  1  0  0  0
  5  6  1  0  0  0
  5  8  1  0  0  0
  6  7  1  0  0  0
  7 24  1  0  0  0
  7 25  1  0  0  0
  8  9  2  0  0  0
  9 10  1  0  0  0
  9 12  1  0  0  0
 10 11  2  0  0  0
 10 26  1  0  0  0
 11 27  1  0  0  0
 12 13  1  0  0  0
 13 14  1  0  0  0
 13 18  2  0  0  0
 14 15  2  0  0  0
 14 28  1  0  0  0
 15 16  1  0  0  0
 15 29  1  0  0  0
 16 17  2  0  0  0
 16 21  1  0  0  0
 17 18  1  0  0  0
 17 19  1  0  0  0
 18 30  1  0  0  0
 19 20  1  0  0  0
 20 31  1  0  0  0
 20 32  1  0  0  0
 20 33  1  0  0  0
 21 22  1  0  0  0
 22 34  1  0  0  0
 22 35  1  0  0  0
 22 36  1  0  0  0
 23 37  1  0  0  0
 23 38  1  0  0  0
M  END
>  <Activity>
7.74473

>  <set_rl>
1

>  <Min_dist>
999.9

>  <Avg_dist>
999.9

>  <PC_uM>
0.086

>  <TG_uM>
0.019

>  <RL_uM>
0.018

$$$$
22-7
 Wcorina  11170919323D 1   1.00000     0.00000              
CORINA evaluation license 3.46 0067  05.08.2008
 36 38  0  0  0  0  0  0  0  0999 V2000
   -0.0160    1.3254    0.0093 N   0  0  0  0  0  0
    0.0021   -0.0041    0.0020 C   0  0  0  0  0  0
    1.1123   -0.7135   -0.0124 N   0  0  0  0  0  0
    2.3111   -0.1167   -0.0206 C   0  0  0  0  0  0
    2.3724    1.2970   -0.0136 C   0  0  0  0  0  0
    1.1058    2.0310    0.0024 C   0  0  0  0  0  0
    1.0809    3.4095    0.0096 N   0  0  0  0  0  0
    3.5480    1.9180   -0.0206 N   0  0  0  0  0  0
    4.6727    1.2415   -0.0340 C   0  0  0  0  0  0
    4.6877   -0.1515   -0.0420 C   0  0  0  0  0  0
    3.5112   -0.8476   -0.0355 C   0  0  0  0  0  0
    6.2017    2.1171   -0.0426 S   0  0  0  0  0  0
    7.1662    1.2349   -0.6002 O   0  0  0  0  0  0
    5.9242    3.4039   -0.5778 O   0  0  0  0  0  0
    6.6690    2.3673    1.6378 C   0  0  0  0  0  0
    7.8088    1.7655    2.1355 C   0  0  0  0  0  0
    8.1759    1.9614    3.4538 C   0  0  0  0  0  0
    7.4041    2.7603    4.2775 C   0  0  0  0  0  0
    6.2638    3.3642    3.7848 C   0  0  0  0  0  0
    5.8960    3.1733    2.4606 C   0  0  0  0  0  0
    4.7775    3.7709    1.9719 O   0  0  0  0  0  0
    4.0302    4.5870    2.8761 C   0  0  0  0  0  0
   -1.2065   -0.6769    0.0104 N   0  0  0  0  0  0
    0.2322    3.8792    0.0199 H   0  0  0  0  0  0
    1.9120    3.9096    0.0043 H   0  0  0  0  0  0
    5.6287   -0.6814   -0.0534 H   0  0  0  0  0  0
    3.5043   -1.9276   -0.0411 H   0  0  0  0  0  0
    8.4132    1.1412    1.4941 H   0  0  0  0  0  0
    9.0668    1.4896    3.8411 H   0  0  0  0  0  0
    7.6931    2.9118    5.3070 H   0  0  0  0  0  0
    5.6612    3.9877    4.4286 H   0  0  0  0  0  0
    3.6949    3.9824    3.7188 H   0  0  0  0  0  0
    4.6609    5.3984    3.2393 H   0  0  0  0  0  0
    3.1648    5.0026    2.3599 H   0  0  0  0  0  0
   -2.0388   -0.1788    0.0214 H   0  0  0  0  0  0
   -1.2218   -1.6467    0.0054 H   0  0  0  0  0  0
  1  2  1  0  0  0
  1  6  2  0  0  0
  2  3  2  0  0  0
  2 23  1  0  0  0
  3  4  1  0  0  0
  4  5  2  0  0  0
  4 11  1  0  0  0
  5  6  1  0  0  0
  5  8  1  0  0  0
  6  7  1  0  0  0
  7 24  1  0  0  0
  7 25  1  0  0  0
  8  9  2  0  0  0
  9 10  1  0  0  0
  9 12  1  0  0  0
 10 11  2  0  0  0
 10 26  1  0  0  0
 11 27  1  0  0  0
 12 13  2  0  0  0
 12 14  2  0  0  0
 12 15  1  0  0  0
 15 16  1  0  0  0
 15 20  2  0  0  0
 16 17  2  0  0  0
 16 28  1  0  0  0
 17 18  1  0  0  0
 17 29  1  0  0  0
 18 19  2  0  0  0
 18 30  1  0  0  0
 19 20  1  0  0  0
 19 31  1  0  0  0
 20 21  1  0  0  0
 21 22  1  0  0  0
 22 32  1  0  0  0
 22 33  1  0  0  0
 22 34  1  0  0  0
 23 35  1  0  0  0
 23 36  1  0  0  0
M  END
>  <Activity>
5.85387

>  <set_rl>
1

>  <Min_dist>
999.9

>  <Avg_dist>
999.9

>  <PC_uM>
3.2

>  <TG_uM>
0.21

>  <RL_uM>
1.4

$$$$
22-11
 Wcorina  11170919323D 1   1.00000     0.00000              
CORINA evaluation license 3.46 0067  05.08.2008
 35 37  0  0  0  0  0  0  0  0999 V2000
    0.1124    1.2381   -1.2069 N   0  0  0  0  0  0
    0.1055   -0.0748   -0.9938 C   0  0  0  0  0  0
    1.1864   -0.7432   -0.6403 N   0  0  0  0  0  0
    2.3553   -0.1074   -0.4802 C   0  0  0  0  0  0
    2.4126    1.2880   -0.6954 C   0  0  0  0  0  0
    1.2177    1.9541   -1.0742 C   0  0  0  0  0  0
    1.2086    3.3156   -1.2989 N   0  0  0  0  0  0
    3.5625    1.9446   -0.5425 N   0  0  0  0  0  0
    4.6650    1.3145   -0.1899 C   0  0  0  0  0  0
    4.6758   -0.0686    0.0386 C   0  0  0  0  0  0
    3.5271   -0.7898   -0.1034 C   0  0  0  0  0  0
    5.8429    2.0370   -0.0419 N   0  0  0  0  0  0
    5.8246    3.4335   -0.1400 C   0  0  0  0  0  0
    4.7104    4.1457    0.2800 C   0  0  0  0  0  0
    4.6948    5.5242    0.1821 C   0  0  0  0  0  0
    5.7874    6.1966   -0.3336 C   0  0  0  0  0  0
    6.9013    5.4935   -0.7542 C   0  0  0  0  0  0
    6.9273    4.1122   -0.6542 C   0  0  0  0  0  0
    8.0246    3.4198   -1.0618 O   0  0  0  0  0  0
    9.1176    4.1818   -1.5784 C   0  0  0  0  0  0
   -1.0831   -0.7672   -1.1487 N   0  0  0  0  0  0
    0.3855    3.7591   -1.5573 H   0  0  0  0  0  0
    2.0253    3.8292   -1.1983 H   0  0  0  0  0  0
    5.5923   -0.5621    0.3264 H   0  0  0  0  0  0
    3.5169   -1.8559    0.0689 H   0  0  0  0  0  0
    6.6778    1.5737    0.1293 H   0  0  0  0  0  0
    3.8555    3.6231    0.6829 H   0  0  0  0  0  0
    3.8269    6.0776    0.5090 H   0  0  0  0  0  0
    5.7706    7.2738   -0.4086 H   0  0  0  0  0  0
    7.7530    6.0218   -1.1566 H   0  0  0  0  0  0
    8.7870    4.7464   -2.4502 H   0  0  0  0  0  0
    9.4739    4.8710   -0.8128 H   0  0  0  0  0  0
    9.9256    3.5091   -1.8661 H   0  0  0  0  0  0
   -1.8895   -0.2945   -1.4078 H   0  0  0  0  0  0
   -1.1096   -1.7251   -0.9981 H   0  0  0  0  0  0
  1  2  1  0  0  0
  1  6  2  0  0  0
  2  3  2  0  0  0
  2 21  1  0  0  0
  3  4  1  0  0  0
  4  5  2  0  0  0
  4 11  1  0  0  0
  5  6  1  0  0  0
  5  8  1  0  0  0
  6  7  1  0  0  0
  7 22  1  0  0  0
  7 23  1  0  0  0
  8  9  2  0  0  0
  9 10  1  0  0  0
  9 12  1  0  0  0
 10 11  2  0  0  0
 10 24  1  0  0  0
 11 25  1  0  0  0
 12 13  1  0  0  0
 12 26  1  0  0  0
 13 14  1  0  0  0
 13 18  2  0  0  0
 14 15  2  0  0  0
 14 27  1  0  0  0
 15 16  1  0  0  0
 15 28  1  0  0  0
 16 17  2  0  0  0
 16 29  1  0  0  0
 17 18  1  0  0  0
 17 30  1  0  0  0
 18 19  1  0  0  0
 19 20  1  0  0  0
 20 31  1  0  0  0
 20 32  1  0  0  0
 20 33  1  0  0  0
 21 34  1  0  0  0
 21 35  1  0  0  0
M  END
>  <Activity>
6.58503

>  <set_rl>
1

>  <Min_dist>
999.9

>  <Avg_dist>
999.9

>  <PC_uM>
8.7

>  <TG_uM>
0.46

>  <RL_uM>
0.26

$$$$
22-15
 Wcorina  11170919323D 1   1.00000     0.00000              
CORINA evaluation license 3.46 0067  05.08.2008
 39 41  0  0  0  0  0  0  0  0999 V2000
    2.4315   -2.6021    1.2528 N   0  0  0  0  0  0
    1.2703   -1.9849    1.0531 C   0  0  0  0  0  0
    1.1913   -0.7212    0.6831 N   0  0  0  0  0  0
    2.3042    0.0006    0.4919 C   0  0  0  0  0  0
    3.5620   -0.6114    0.6922 C   0  0  0  0  0  0
    3.5851   -1.9740    1.0896 C   0  0  0  0  0  0
    4.7816   -2.6280    1.3011 N   0  0  0  0  0  0
    4.6842    0.0840    0.5085 N   0  0  0  0  0  0
    4.6493    1.3484    0.1386 C   0  0  0  0  0  0
    3.4346    2.0142   -0.0767 C   0  0  0  0  0  0
    2.2558    1.3506    0.0968 C   0  0  0  0  0  0
    5.8430    2.0371   -0.0415 N   0  0  0  0  0  0
    7.0635    1.3579    0.0497 C   0  0  0  0  0  0
    7.1547    0.0352   -0.3638 C   0  0  0  0  0  0
    8.3591   -0.6365   -0.2748 C   0  0  0  0  0  0
    9.4780    0.0078    0.2276 C   0  0  0  0  0  0
    9.3898    1.3329    0.6432 C   0  0  0  0  0  0
    8.1843    2.0082    0.5483 C   0  0  0  0  0  0
   10.4876    1.9659    1.1368 O   0  0  0  0  0  0
   10.3239    3.3257    1.5444 C   0  0  0  0  0  0
   10.6631   -0.6553    0.3150 O   0  0  0  0  0  0
   10.6809   -2.0133   -0.1292 C   0  0  0  0  0  0
    0.0981   -2.6971    1.2404 N   0  0  0  0  0  0
    4.7840   -3.5591    1.5728 H   0  0  0  0  0  0
    5.6204   -2.1565    1.1782 H   0  0  0  0  0  0
    3.4322    3.0509   -0.3792 H   0  0  0  0  0  0
    1.3107    1.8476   -0.0646 H   0  0  0  0  0  0
    5.8303    2.9884   -0.2305 H   0  0  0  0  0  0
    6.2834   -0.4690   -0.7550 H   0  0  0  0  0  0
    8.4281   -1.6651   -0.5968 H   0  0  0  0  0  0
    8.1150    3.0380    0.8662 H   0  0  0  0  0  0
    9.9991    3.9236    0.6929 H   0  0  0  0  0  0
    9.5744    3.3807    2.3339 H   0  0  0  0  0  0
   11.2732    3.7100    1.9173 H   0  0  0  0  0  0
    9.9742   -2.5977    0.4601 H   0  0  0  0  0  0
   10.3988   -2.0552   -1.1812 H   0  0  0  0  0  0
   11.6834   -2.4230   -0.0053 H   0  0  0  0  0  0
    0.1341   -3.6276    1.5121 H   0  0  0  0  0  0
   -0.7593   -2.2657    1.1000 H   0  0  0  0  0  0
  1  2  1  0  0  0
  1  6  2  0  0  0
  2  3  2  0  0  0
  2 23  1  0  0  0
  3  4  1  0  0  0
  4  5  2  0  0  0
  4 11  1  0  0  0
  5  6  1  0  0  0
  5  8  1  0  0  0
  6  7  1  0  0  0
  7 24  1  0  0  0
  7 25  1  0  0  0
  8  9  2  0  0  0
  9 10  1  0  0  0
  9 12  1  0  0  0
 10 11  2  0  0  0
 10 26  1  0  0  0
 11 27  1  0  0  0
 12 13  1  0  0  0
 12 28  1  0  0  0
 13 14  1  0  0  0
 13 18  2  0  0  0
 14 15  2  0  0  0
 14 29  1  0  0  0
 15 16  1  0  0  0
 15 30  1  0  0  0
 16 17  2  0  0  0
 16 21  1  0  0  0
 17 18  1  0  0  0
 17 19  1  0  0  0
 18 31  1  0  0  0
 19 20  1  0  0  0
 20 32  1  0  0  0
 20 33  1  0  0  0
 20 34  1  0  0  0
 21 22  1  0  0  0
 22 35  1  0  0  0
 22 36  1  0  0  0
 22 37  1  0  0  0
 23 38  1  0  0  0
 23 39  1  0  0  0
M  END
>  <Activity>
5.95861

>  <set_rl>
1

>  <Min_dist>
999.9

>  <Avg_dist>
999.9

>  <PC_uM>
40.4

>  <TG_uM>
0.68

>  <RL_uM>
1.1

$$$$
22-10
 Wcorina  11170919323D 1   1.00000     0.00000              
CORINA evaluation license 3.46 0067  05.08.2008
 31 33  0  0  0  0  0  0  0  0999 V2000
   -0.0155    1.3214   -0.0109 N   0  0  0  0  0  0
    0.0034   -0.0084   -0.0367 C   0  0  0  0  0  0
    1.1246   -0.7030   -0.0588 N   0  0  0  0  0  0
    2.3101   -0.0780   -0.0560 C   0  0  0  0  0  0
    2.3413    1.3345   -0.0291 C   0  0  0  0  0  0
    1.1033    2.0286   -0.0060 C   0  0  0  0  0  0
    1.0671    3.4078    0.0203 N   0  0  0  0  0  0
    3.5071    1.9806   -0.0253 N   0  0  0  0  0  0
    4.6497    1.3244   -0.0464 C   0  0  0  0  0  0
    4.6882   -0.0765   -0.0736 C   0  0  0  0  0  0
    3.5249   -0.7884   -0.0787 C   0  0  0  0  0  0
    5.8431    2.0373   -0.0419 N   0  0  0  0  0  0
    5.8248    3.4312   -0.1398 C   0  0  0  0  0  0
    6.7755    4.1889    0.5325 C   0  0  0  0  0  0
    6.7548    5.5661    0.4332 C   0  0  0  0  0  0
    5.7891    6.1912   -0.3343 C   0  0  0  0  0  0
    4.8409    5.4400   -1.0045 C   0  0  0  0  0  0
    4.8593    4.0621   -0.9142 C   0  0  0  0  0  0
   -1.2012   -0.6904   -0.0400 N   0  0  0  0  0  0
    0.2146    3.8704    0.0356 H   0  0  0  0  0  0
    1.8941    3.9147    0.0237 H   0  0  0  0  0  0
    5.6375   -0.5913   -0.0909 H   0  0  0  0  0  0
    3.5356   -1.8682   -0.0992 H   0  0  0  0  0  0
    6.6886    1.5671    0.0290 H   0  0  0  0  0  0
    7.5297    3.7014    1.1324 H   0  0  0  0  0  0
    7.4934    6.1558    0.9559 H   0  0  0  0  0  0
    5.7751    7.2684   -0.4102 H   0  0  0  0  0  0
    4.0876    5.9314   -1.6025 H   0  0  0  0  0  0
    4.1215    3.4758   -1.4417 H   0  0  0  0  0  0
   -2.0371   -0.1985   -0.0237 H   0  0  0  0  0  0
   -1.2094   -1.6602   -0.0586 H   0  0  0  0  0  0
  1  2  1  0  0  0
  1  6  2  0  0  0
  2  3  2  0  0  0
  2 19  1  0  0  0
  3  4  1  0  0  0
  4  5  2  0  0  0
  4 11  1  0  0  0
  5  6  1  0  0  0
  5  8  1  0  0  0
  6  7  1  0  0  0
  7 20  1  0  0  0
  7 21  1  0  0  0
  8  9  2  0  0  0
  9 10  1  0  0  0
  9 12  1  0  0  0
 10 11  2  0  0  0
 10 22  1  0  0  0
 11 23  1  0  0  0
 12 13  1  0  0  0
 12 24  1  0  0  0
 13 14  1  0  0  0
 13 18  2  0  0  0
 14 15  2  0  0  0
 14 25  1  0  0  0
 15 16  1  0  0  0
 15 26  1  0  0  0
 16 17  2  0  0  0
 16 27  1  0  0  0
 17 18  1  0  0  0
 17 28  1  0  0  0
 18 29  1  0  0  0
 19 30  1  0  0  0
 19 31  1  0  0  0
M  END
>  <Activity>
6.36653

>  <set_rl>
1

>  <Min_dist>
999.9

>  <Avg_dist>
999.9

>  <PC_uM>
8.3

>  <TG_uM>
0.3

>  <RL_uM>
0.43

$$$$
22-18
 Wcorina  11170919323D 1   1.00000     0.00000              
CORINA evaluation license 3.46 0067  05.08.2008
 34 36  0  0  0  0  0  0  0  0999 V2000
    0.1934    0.3667   -0.3990 N   0  0  0  0  0  0
    0.4096   -0.9212   -0.1458 C   0  0  0  0  0  0
    1.6142   -1.4088    0.0797 N   0  0  0  0  0  0
    2.6862   -0.6047    0.0609 C   0  0  0  0  0  0
    2.5071    0.7718   -0.2037 C   0  0  0  0  0  0
    1.1876    1.2395   -0.4389 C   0  0  0  0  0  0
    0.9473    2.5724   -0.7032 N   0  0  0  0  0  0
    3.5564    1.5933   -0.2277 N   0  0  0  0  0  0
    4.7764    1.1465   -0.0072 C   0  0  0  0  0  0
    5.0223   -0.2072    0.2611 C   0  0  0  0  0  0
    3.9852   -1.0920    0.2977 C   0  0  0  0  0  0
    5.8431    2.0373   -0.0419 N   0  0  0  0  0  0
    6.4858    2.3110   -1.2524 C   0  0  0  0  0  0
    7.6221    3.1099   -1.2722 C   0  0  0  0  0  0
    8.2549    3.3781   -2.4700 C   0  0  0  0  0  0
    7.7587    2.8523   -3.6489 C   0  0  0  0  0  0
    6.6275    2.0570   -3.6328 C   0  0  0  0  0  0
    5.9930    1.7802   -2.4378 C   0  0  0  0  0  0
    6.2936    2.6890    1.1903 C   0  0  0  0  0  0
   -0.6727   -1.7838   -0.1174 N   0  0  0  0  0  0
    0.0411    2.8795   -0.8626 H   0  0  0  0  0  0
    1.6845    3.2022   -0.7297 H   0  0  0  0  0  0
    6.0314   -0.5489    0.4381 H   0  0  0  0  0  0
    4.1560   -2.1385    0.5032 H   0  0  0  0  0  0
    8.0099    3.5211   -0.3519 H   0  0  0  0  0  0
    9.1381    3.9994   -2.4861 H   0  0  0  0  0  0
    8.2555    3.0635   -4.5842 H   0  0  0  0  0  0
    6.2422    1.6485   -4.5553 H   0  0  0  0  0  0
    5.1124    1.1551   -2.4254 H   0  0  0  0  0  0
    7.0581    2.0756    1.6672 H   0  0  0  0  0  0
    6.7095    3.6681    0.9524 H   0  0  0  0  0  0
    5.4484    2.8083    1.8682 H   0  0  0  0  0  0
   -1.5671   -1.4453   -0.2803 H   0  0  0  0  0  0
   -0.5368   -2.7266    0.0653 H   0  0  0  0  0  0
  1  2  1  0  0  0
  1  6  2  0  0  0
  2  3  2  0  0  0
  2 20  1  0  0  0
  3  4  1  0  0  0
  4  5  2  0  0  0
  4 11  1  0  0  0
  5  6  1  0  0  0
  5  8  1  0  0  0
  6  7  1  0  0  0
  7 21  1  0  0  0
  7 22  1  0  0  0
  8  9  2  0  0  0
  9 10  1  0  0  0
  9 12  1  0  0  0
 10 11  2  0  0  0
 10 23  1  0  0  0
 11 24  1  0  0  0
 12 13  1  0  0  0
 12 19  1  0  0  0
 13 14  1  0  0  0
 13 18  2  0  0  0
 14 15  2  0  0  0
 14 25  1  0  0  0
 15 16  1  0  0  0
 15 26  1  0  0  0
 16 17  2  0  0  0
 16 27  1  0  0  0
 17 18  1  0  0  0
 17 28  1  0  0  0
 18 29  1  0  0  0
 19 30  1  0  0  0
 19 31  1  0  0  0
 19 32  1  0  0  0
 20 33  1  0  0  0
 20 34  1  0  0  0
M  END
>  <Activity>
8.88606

>  <set_rl>
1

>  <Min_dist>
999.9

>  <Avg_dist>
999.9

>  <PC_uM>
0.0995

>  <TG_uM>
0.0022

>  <RL_uM>
0.0013

$$$$
22-13
 Wcorina  11170919323D 1   1.00000     0.00000              
CORINA evaluation license 3.46 0067  05.08.2008
 31 33  0  0  0  0  0  0  0  0999 V2000
   -0.0155    1.3214   -0.0110 N   0  0  0  0  0  0
    0.0034   -0.0084   -0.0367 C   0  0  0  0  0  0
    1.1246   -0.7030   -0.0588 N   0  0  0  0  0  0
    2.3101   -0.0780   -0.0560 C   0  0  0  0  0  0
    2.3413    1.3345   -0.0291 C   0  0  0  0  0  0
    1.1033    2.0286   -0.0061 C   0  0  0  0  0  0
    1.0671    3.4078    0.0203 N   0  0  0  0  0  0
    3.5071    1.9806   -0.0253 N   0  0  0  0  0  0
    4.6497    1.3244   -0.0464 C   0  0  0  0  0  0
    4.6882   -0.0766   -0.0741 C   0  0  0  0  0  0
    3.5249   -0.7884   -0.0787 C   0  0  0  0  0  0
    5.8431    2.0372   -0.0415 N   0  0  0  0  0  0
    5.8248    3.4318   -0.1389 C   0  0  0  0  0  0
    6.7754    4.1889    0.5339 C   0  0  0  0  0  0
    6.7552    5.5662    0.4354 C   0  0  0  0  0  0
    5.7891    6.1923   -0.3325 C   0  0  0  0  0  0
    4.8408    5.4405   -1.0039 C   0  0  0  0  0  0
    4.8594    4.0626   -0.9133 C   0  0  0  0  0  0
    5.7664    7.9239   -0.4535 Cl  0  0  0  0  0  0
   -1.2012   -0.6904   -0.0400 N   0  0  0  0  0  0
    0.2146    3.8704    0.0355 H   0  0  0  0  0  0
    1.8941    3.9147    0.0236 H   0  0  0  0  0  0
    5.6375   -0.5913   -0.0917 H   0  0  0  0  0  0
    3.5356   -1.8682   -0.0992 H   0  0  0  0  0  0
    6.6886    1.5671    0.0295 H   0  0  0  0  0  0
    7.5294    3.7008    1.1336 H   0  0  0  0  0  0
    7.4939    6.1554    0.9586 H   0  0  0  0  0  0
    4.0877    5.9317   -1.6022 H   0  0  0  0  0  0
    4.1218    3.4762   -1.4410 H   0  0  0  0  0  0
   -2.0371   -0.1985   -0.0237 H   0  0  0  0  0  0
   -1.2094   -1.6602   -0.0586 H   0  0  0  0  0  0
  1  2  1  0  0  0
  1  6  2  0  0  0
  2  3  2  0  0  0
  2 20  1  0  0  0
  3  4  1  0  0  0
  4  5  2  0  0  0
  4 11  1  0  0  0
  5  6  1  0  0  0
  5  8  1  0  0  0
  6  7  1  0  0  0
  7 21  1  0  0  0
  7 22  1  0  0  0
  8  9  2  0  0  0
  9 10  1  0  0  0
  9 12  1  0  0  0
 10 11  2  0  0  0
 10 23  1  0  0  0
 11 24  1  0  0  0
 12 13  1  0  0  0
 12 25  1  0  0  0
 13 14  1  0  0  0
 13 18  2  0  0  0
 14 15  2  0  0  0
 14 26  1  0  0  0
 15 16  1  0  0  0
 15 27  1  0  0  0
 16 17  2  0  0  0
 16 19  1  0  0  0
 17 18  1  0  0  0
 17 28  1  0  0  0
 18 29  1  0  0  0
 20 30  1  0  0  0
 20 31  1  0  0  0
M  END
>  <Activity>
6.08619

>  <set_rl>
1

>  <Min_dist>
999.9

>  <Avg_dist>
999.9

>  <PC_uM>
14.6

>  <TG_uM>
0.83

>  <RL_uM>
0.82

$$$$
14-5
 Wcorina  11170919323D 1   1.00000     0.00000              
CORINA evaluation license 3.46 0067  05.08.2008
 42 44  0  0  0  0  0  0  0  0999 V2000
   -0.0160    1.3254    0.0093 N   0  0  0  0  0  0
    0.0021   -0.0041    0.0020 C   0  0  0  0  0  0
    1.1123   -0.7135   -0.0124 N   0  0  0  0  0  0
    2.3111   -0.1167   -0.0206 C   0  0  0  0  0  0
    2.3724    1.2970   -0.0136 C   0  0  0  0  0  0
    1.1058    2.0310    0.0024 C   0  0  0  0  0  0
    1.0809    3.4095    0.0096 N   0  0  0  0  0  0
    3.5480    1.9180   -0.0206 N   0  0  0  0  0  0
    4.6727    1.2415   -0.0340 C   0  0  0  0  0  0
    4.6877   -0.1515   -0.0420 C   0  0  0  0  0  0
    3.5112   -0.8476   -0.0355 C   0  0  0  0  0  0
    5.9804    1.9904   -0.0414 C   0  0  0  0  0  0
    6.3324    2.3449   -1.4186 N   0  0  0  0  0  0
    7.5131    3.0493   -1.6799 C   0  0  0  0  0  0
    8.3510    3.4125   -0.6359 C   0  0  0  0  0  0
    9.5202    4.1099   -0.8979 C   0  0  0  0  0  0
    9.8518    4.4446   -2.2025 C   0  0  0  0  0  0
    9.0179    4.0840   -3.2448 C   0  0  0  0  0  0
    7.8519    3.3820   -2.9894 C   0  0  0  0  0  0
    7.0348    3.0222   -4.0165 O   0  0  0  0  0  0
    7.4448    3.3964   -5.3333 C   0  0  0  0  0  0
   10.3423    4.4665    0.1248 O   0  0  0  0  0  0
   11.5302    5.1834   -0.2174 C   0  0  0  0  0  0
   -1.2065   -0.6769    0.0104 N   0  0  0  0  0  0
    0.2322    3.8792    0.0199 H   0  0  0  0  0  0
    1.9120    3.9096    0.0043 H   0  0  0  0  0  0
    5.6287   -0.6814   -0.0534 H   0  0  0  0  0  0
    3.5043   -1.9276   -0.0411 H   0  0  0  0  0  0
    5.8826    2.8983    0.5538 H   0  0  0  0  0  0
    6.7623    1.3604    0.3828 H   0  0  0  0  0  0
    5.7471    2.0913   -2.1493 H   0  0  0  0  0  0
    8.0927    3.1526    0.3801 H   0  0  0  0  0  0
   10.7629    4.9882   -2.4045 H   0  0  0  0  0  0
    9.2784    4.3462   -4.2595 H   0  0  0  0  0  0
    7.5296    4.4814   -5.3929 H   0  0  0  0  0  0
    8.4111    2.9437   -5.5554 H   0  0  0  0  0  0
    6.7063    3.0495   -6.0561 H   0  0  0  0  0  0
   12.1408    4.5767   -0.8861 H   0  0  0  0  0  0
   11.2615    6.1149   -0.7156 H   0  0  0  0  0  0
   12.0943    5.4054    0.6885 H   0  0  0  0  0  0
   -2.0388   -0.1788    0.0214 H   0  0  0  0  0  0
   -1.2218   -1.6467    0.0054 H   0  0  0  0  0  0
  1  2  1  0  0  0
  1  6  2  0  0  0
  2  3  2  0  0  0
  2 24  1  0  0  0
  3  4  1  0  0  0
  4  5  2  0  0  0
  4 11  1  0  0  0
  5  6  1  0  0  0
  5  8  1  0  0  0
  6  7  1  0  0  0
  7 25  1  0  0  0
  7 26  1  0  0  0
  8  9  2  0  0  0
  9 10  1  0  0  0
  9 12  1  0  0  0
 10 11  2  0  0  0
 10 27  1  0  0  0
 11 28  1  0  0  0
 12 13  1  0  0  0
 12 29  1  0  0  0
 12 30  1  0  0  0
 13 14  1  0  0  0
 13 31  1  0  0  0
 14 15  1  0  0  0
 14 19  2  0  0  0
 15 16  2  0  0  0
 15 32  1  0  0  0
 16 17  1  0  0  0
 16 22  1  0  0  0
 17 18  2  0  0  0
 17 33  1  0  0  0
 18 19  1  0  0  0
 18 34  1  0  0  0
 19 20  1  0  0  0
 20 21  1  0  0  0
 21 35  1  0  0  0
 21 36  1  0  0  0
 21 37  1  0  0  0
 22 23  1  0  0  0
 23 38  1  0  0  0
 23 39  1  0  0  0
 23 40  1  0  0  0
 24 41  1  0  0  0
 24 42  1  0  0  0
M  END
>  <Activity>
6.36653

>  <set_rl>
1

>  <Min_dist>
999.9

>  <Avg_dist>
999.9

>  <PC_uM>
1.4

>  <TG_uM>
0.1

>  <RL_uM>
0.43

$$$$
14-10
 Wcorina  11170919323D 1   1.00000     0.00000              
CORINA evaluation license 3.46 0067  05.08.2008
 37 39  0  0  0  0  0  0  0  0999 V2000
   -0.0160    1.3254    0.0093 N   0  0  0  0  0  0
    0.0021   -0.0041    0.0020 C   0  0  0  0  0  0
    1.1123   -0.7135   -0.0124 N   0  0  0  0  0  0
    2.3111   -0.1167   -0.0206 C   0  0  0  0  0  0
    2.3724    1.2970   -0.0136 C   0  0  0  0  0  0
    1.1058    2.0310    0.0024 C   0  0  0  0  0  0
    1.0809    3.4095    0.0096 N   0  0  0  0  0  0
    3.5480    1.9180   -0.0206 N   0  0  0  0  0  0
    4.6727    1.2415   -0.0340 C   0  0  0  0  0  0
    4.6877   -0.1515   -0.0420 C   0  0  0  0  0  0
    3.5112   -0.8476   -0.0355 C   0  0  0  0  0  0
    5.9804    1.9904   -0.0414 C   0  0  0  0  0  0
    6.3324    2.3449   -1.4186 N   0  0  0  0  0  0
    5.9022    3.5595   -1.9591 C   0  0  0  0  0  0
    6.2353    3.8968   -3.2650 C   0  0  0  0  0  0
    5.8091    5.0977   -3.7973 C   0  0  0  0  0  0
    5.0511    5.9657   -3.0312 C   0  0  0  0  0  0
    4.7173    5.6326   -1.7292 C   0  0  0  0  0  0
    5.1362    4.4289   -1.1938 C   0  0  0  0  0  0
    3.7661    6.7240   -0.7712 Cl  0  0  0  0  0  0
    4.5181    7.4749   -3.7034 Cl  0  0  0  0  0  0
    7.1354    1.4259   -2.2290 C   0  0  0  0  0  0
   -1.2065   -0.6769    0.0104 N   0  0  0  0  0  0
    0.2322    3.8792    0.0199 H   0  0  0  0  0  0
    1.9120    3.9096    0.0043 H   0  0  0  0  0  0
    5.6287   -0.6814   -0.0534 H   0  0  0  0  0  0
    3.5043   -1.9276   -0.0411 H   0  0  0  0  0  0
    5.8826    2.8983    0.5538 H   0  0  0  0  0  0
    6.7623    1.3604    0.3828 H   0  0  0  0  0  0
    6.8275    3.2204   -3.8634 H   0  0  0  0  0  0
    6.0681    5.3599   -4.8124 H   0  0  0  0  0  0
    4.8721    4.1671   -0.1799 H   0  0  0  0  0  0
    6.4760    0.7443   -2.7663 H   0  0  0  0  0  0
    7.7291    1.9958   -2.9438 H   0  0  0  0  0  0
    7.7986    0.8539   -1.5801 H   0  0  0  0  0  0
   -2.0388   -0.1788    0.0214 H   0  0  0  0  0  0
   -1.2218   -1.6467    0.0054 H   0  0  0  0  0  0
  1  2  1  0  0  0
  1  6  2  0  0  0
  2  3  2  0  0  0
  2 23  1  0  0  0
  3  4  1  0  0  0
  4  5  2  0  0  0
  4 11  1  0  0  0
  5  6  1  0  0  0
  5  8  1  0  0  0
  6  7  1  0  0  0
  7 24  1  0  0  0
  7 25  1  0  0  0
  8  9  2  0  0  0
  9 10  1  0  0  0
  9 12  1  0  0  0
 10 11  2  0  0  0
 10 26  1  0  0  0
 11 27  1  0  0  0
 12 13  1  0  0  0
 12 28  1  0  0  0
 12 29  1  0  0  0
 13 14  1  0  0  0
 13 22  1  0  0  0
 14 15  1  0  0  0
 14 19  2  0  0  0
 15 16  2  0  0  0
 15 30  1  0  0  0
 16 17  1  0  0  0
 16 31  1  0  0  0
 17 18  2  0  0  0
 17 21  1  0  0  0
 18 19  1  0  0  0
 18 20  1  0  0  0
 19 32  1  0  0  0
 22 33  1  0  0  0
 22 34  1  0  0  0
 22 35  1  0  0  0
 23 36  1  0  0  0
 23 37  1  0  0  0
M  END
>  <Activity>
7.49485

>  <set_rl>
1

>  <Min_dist>
999.9

>  <Avg_dist>
999.9

>  <PC_uM>
0.022

>  <TG_uM>
0.098

>  <RL_uM>
0.032

$$$$
21-5
 Wcorina  11170919323D 1   1.00000     0.00000              
CORINA evaluation license 3.46 0067  05.08.2008
 37 39  0  0  0  0  0  0  0  0999 V2000
   -0.0160    1.3254    0.0093 N   0  0  0  0  0  0
    0.0021   -0.0041    0.0020 C   0  0  0  0  0  0
    1.1123   -0.7135   -0.0124 N   0  0  0  0  0  0
    2.3111   -0.1167   -0.0206 C   0  0  0  0  0  0
    2.3724    1.2970   -0.0136 C   0  0  0  0  0  0
    1.1058    2.0310    0.0024 C   0  0  0  0  0  0
    1.0809    3.4095    0.0096 N   0  0  0  0  0  0
    3.5480    1.9180   -0.0206 N   0  0  0  0  0  0
    4.6727    1.2415   -0.0340 C   0  0  0  0  0  0
    4.6877   -0.1515   -0.0420 C   0  0  0  0  0  0
    3.5112   -0.8476   -0.0355 C   0  0  0  0  0  0
    5.9804    1.9904   -0.0414 C   0  0  0  0  0  0
    6.3324    2.3449   -1.4186 N   0  0  0  0  0  0
    5.9024    3.5590   -1.9589 C   0  0  0  0  0  0
    6.2352    3.8966   -3.2646 C   0  0  0  0  0  0
    5.8080    5.0977   -3.7959 C   0  0  0  0  0  0
    5.0497    5.9637   -3.0296 C   0  0  0  0  0  0
    4.7165    5.6307   -1.7294 C   0  0  0  0  0  0
    5.1360    4.4289   -1.1937 C   0  0  0  0  0  0
    7.1354    1.4259   -2.2290 C   0  0  0  0  0  0
   -1.2065   -0.6769    0.0104 N   0  0  0  0  0  0
    0.2322    3.8792    0.0199 H   0  0  0  0  0  0
    1.9120    3.9096    0.0043 H   0  0  0  0  0  0
    5.6287   -0.6814   -0.0534 H   0  0  0  0  0  0
    3.5043   -1.9276   -0.0411 H   0  0  0  0  0  0
    5.8826    2.8983    0.5538 H   0  0  0  0  0  0
    6.7623    1.3604    0.3828 H   0  0  0  0  0  0
    6.8277    3.2208   -3.8634 H   0  0  0  0  0  0
    6.0667    5.3609   -4.8108 H   0  0  0  0  0  0
    4.7171    6.9025   -3.4474 H   0  0  0  0  0  0
    4.1241    6.3093   -1.1337 H   0  0  0  0  0  0
    4.8718    4.1674   -0.1797 H   0  0  0  0  0  0
    6.4760    0.7443   -2.7663 H   0  0  0  0  0  0
    7.7291    1.9958   -2.9438 H   0  0  0  0  0  0
    7.7986    0.8539   -1.5801 H   0  0  0  0  0  0
   -2.0388   -0.1788    0.0214 H   0  0  0  0  0  0
   -1.2218   -1.6467    0.0054 H   0  0  0  0  0  0
  1  2  1  0  0  0
  1  6  2  0  0  0
  2  3  2  0  0  0
  2 21  1  0  0  0
  3  4  1  0  0  0
  4  5  2  0  0  0
  4 11  1  0  0  0
  5  6  1  0  0  0
  5  8  1  0  0  0
  6  7  1  0  0  0
  7 22  1  0  0  0
  7 23  1  0  0  0
  8  9  2  0  0  0
  9 10  1  0  0  0
  9 12  1  0  0  0
 10 11  2  0  0  0
 10 24  1  0  0  0
 11 25  1  0  0  0
 12 13  1  0  0  0
 12 26  1  0  0  0
 12 27  1  0  0  0
 13 14  1  0  0  0
 13 20  1  0  0  0
 14 15  1  0  0  0
 14 19  2  0  0  0
 15 16  2  0  0  0
 15 28  1  0  0  0
 16 17  1  0  0  0
 16 29  1  0  0  0
 17 18  2  0  0  0
 17 30  1  0  0  0
 18 19  1  0  0  0
 18 31  1  0  0  0
 19 32  1  0  0  0
 20 33  1  0  0  0
 20 34  1  0  0  0
 20 35  1  0  0  0
 21 36  1  0  0  0
 21 37  1  0  0  0
M  END
>  <Activity>
7.61979

>  <set_rl>
1

>  <Min_dist>
999.9

>  <Avg_dist>
999.9

>  <PC_uM>
0.29

>  <TG_uM>
0.0084

>  <RL_uM>
0.024

$$$$
22-16
 Wcorina  11170919323D 1   1.00000     0.00000              
CORINA evaluation license 3.46 0067  05.08.2008
 43 45  0  0  0  0  0  0  0  0999 V2000
    0.2527    2.0414   -1.9347 N   0  0  0  0  0  0
    0.3644    0.9666   -2.7104 C   0  0  0  0  0  0
    1.4927    0.2951   -2.8364 N   0  0  0  0  0  0
    2.5903    0.6817   -2.1717 C   0  0  0  0  0  0
    2.5211    1.8182   -1.3348 C   0  0  0  0  0  0
    1.2803    2.5010   -1.2385 C   0  0  0  0  0  0
    1.1487    3.6176   -0.4384 N   0  0  0  0  0  0
    3.5981    2.2237   -0.6622 N   0  0  0  0  0  0
    4.7443    1.5807   -0.7600 C   0  0  0  0  0  0
    4.8798    0.4468   -1.5730 C   0  0  0  0  0  0
    3.8097   -0.0122   -2.2830 C   0  0  0  0  0  0
    5.8430    2.0371   -0.0415 N   0  0  0  0  0  0
    7.0177    1.2773   -0.0015 C   0  0  0  0  0  0
    8.2515    1.8994   -0.1377 C   0  0  0  0  0  0
    9.4152    1.1476   -0.0982 C   0  0  0  0  0  0
    9.3470   -0.2293    0.0778 C   0  0  0  0  0  0
    8.1117   -0.8514    0.2140 C   0  0  0  0  0  0
    6.9490   -0.0975    0.1800 C   0  0  0  0  0  0
    8.0439   -2.1986    0.3862 O   0  0  0  0  0  0
    6.7413   -2.7710    0.5194 C   0  0  0  0  0  0
   10.4899   -0.9687    0.1162 O   0  0  0  0  0  0
   11.0943   -1.1626    1.3965 C   0  0  0  0  0  0
   10.6235    1.7570   -0.2320 O   0  0  0  0  0  0
   10.6188    3.1749   -0.4102 C   0  0  0  0  0  0
   -0.7477    0.5356   -3.4131 N   0  0  0  0  0  0
    0.2955    4.0755   -0.3814 H   0  0  0  0  0  0
    1.9094    3.9445    0.0669 H   0  0  0  0  0  0
    5.8299   -0.0627   -1.6366 H   0  0  0  0  0  0
    3.8958   -0.8846   -2.9138 H   0  0  0  0  0  0
    5.7957    2.8822    0.4323 H   0  0  0  0  0  0
    8.3043    2.9694   -0.2748 H   0  0  0  0  0  0
    5.9892   -0.5802    0.2906 H   0  0  0  0  0  0
    6.8300   -3.8494    0.6505 H   0  0  0  0  0  0
    6.2418   -2.3393    1.3867 H   0  0  0  0  0  0
    6.1587   -2.5607   -0.3775 H   0  0  0  0  0  0
   11.3568   -0.1952    1.8246 H   0  0  0  0  0  0
   10.3927   -1.6735    2.0559 H   0  0  0  0  0  0
   11.9946   -1.7670    1.2854 H   0  0  0  0  0  0
   11.6441    3.5327   -0.5037 H   0  0  0  0  0  0
   10.0626    3.4258   -1.3134 H   0  0  0  0  0  0
   10.1461    3.6476    0.4507 H   0  0  0  0  0  0
   -1.5872    1.0151   -3.3342 H   0  0  0  0  0  0
   -0.6875   -0.2461   -3.9844 H   0  0  0  0  0  0
  1  2  1  0  0  0
  1  6  2  0  0  0
  2  3  2  0  0  0
  2 25  1  0  0  0
  3  4  1  0  0  0
  4  5  2  0  0  0
  4 11  1  0  0  0
  5  6  1  0  0  0
  5  8  1  0  0  0
  6  7  1  0  0  0
  7 26  1  0  0  0
  7 27  1  0  0  0
  8  9  2  0  0  0
  9 10  1  0  0  0
  9 12  1  0  0  0
 10 11  2  0  0  0
 10 28  1  0  0  0
 11 29  1  0  0  0
 12 13  1  0  0  0
 12 30  1  0  0  0
 13 14  1  0  0  0
 13 18  2  0  0  0
 14 15  2  0  0  0
 14 31  1  0  0  0
 15 16  1  0  0  0
 15 23  1  0  0  0
 16 17  2  0  0  0
 16 21  1  0  0  0
 17 18  1  0  0  0
 17 19  1  0  0  0
 18 32  1  0  0  0
 19 20  1  0  0  0
 20 33  1  0  0  0
 20 34  1  0  0  0
 20 35  1  0  0  0
 21 22  1  0  0  0
 22 36  1  0  0  0
 22 37  1  0  0  0
 22 38  1  0  0  0
 23 24  1  0  0  0
 24 39  1  0  0  0
 24 40  1  0  0  0
 24 41  1  0  0  0
 25 42  1  0  0  0
 25 43  1  0  0  0
M  END
>  <Activity>
5.49485

>  <set_rl>
1

>  <Min_dist>
999.9

>  <Avg_dist>
999.9

>  <PC_uM>
25.9

>  <TG_uM>
2.4

>  <RL_uM>
3.2

$$$$
21-9
 Wcorina  11170919323D 1   1.00000     0.00000              
CORINA evaluation license 3.46 0067  05.08.2008
 41 43  0  0  0  0  0  0  0  0999 V2000
   -0.0160    1.3254    0.0093 N   0  0  0  0  0  0
    0.0021   -0.0041    0.0020 C   0  0  0  0  0  0
    1.1123   -0.7135   -0.0124 N   0  0  0  0  0  0
    2.3111   -0.1167   -0.0206 C   0  0  0  0  0  0
    2.3724    1.2970   -0.0136 C   0  0  0  0  0  0
    1.1058    2.0310    0.0024 C   0  0  0  0  0  0
    1.0809    3.4095    0.0096 N   0  0  0  0  0  0
    3.5480    1.9180   -0.0206 N   0  0  0  0  0  0
    4.6727    1.2415   -0.0340 C   0  0  0  0  0  0
    4.6877   -0.1515   -0.0420 C   0  0  0  0  0  0
    3.5112   -0.8476   -0.0355 C   0  0  0  0  0  0
    5.9804    1.9904   -0.0414 C   0  0  0  0  0  0
    6.3324    2.3449   -1.4186 N   0  0  0  0  0  0
    5.9024    3.5589   -1.9589 C   0  0  0  0  0  0
    5.1406    4.4314   -1.1909 C   0  0  0  0  0  0
    4.7159    5.6320   -1.7252 C   0  0  0  0  0  0
    5.0466    5.9689   -3.0243 C   0  0  0  0  0  0
    5.8070    5.1017   -3.7959 C   0  0  0  0  0  0
    6.2401    3.8982   -3.2616 C   0  0  0  0  0  0
    6.1309    5.4343   -5.0731 O   0  0  0  0  0  0
    5.6551    6.6920   -5.5566 C   0  0  0  0  0  0
    7.1354    1.4259   -2.2290 C   0  0  0  0  0  0
   -1.2065   -0.6769    0.0104 N   0  0  0  0  0  0
    0.2322    3.8792    0.0199 H   0  0  0  0  0  0
    1.9120    3.9096    0.0043 H   0  0  0  0  0  0
    5.6287   -0.6814   -0.0534 H   0  0  0  0  0  0
    3.5043   -1.9276   -0.0411 H   0  0  0  0  0  0
    5.8826    2.8983    0.5538 H   0  0  0  0  0  0
    6.7623    1.3604    0.3828 H   0  0  0  0  0  0
    4.8802    4.1702   -0.1758 H   0  0  0  0  0  0
    4.1239    6.3089   -1.1270 H   0  0  0  0  0  0
    4.7124    6.9082   -3.4395 H   0  0  0  0  0  0
    6.8355    3.2239   -3.8593 H   0  0  0  0  0  0
    6.0530    7.4943   -4.9351 H   0  0  0  0  0  0
    5.9834    6.8332   -6.5863 H   0  0  0  0  0  0
    4.5659    6.7080   -5.5170 H   0  0  0  0  0  0
    6.4760    0.7443   -2.7663 H   0  0  0  0  0  0
    7.7291    1.9958   -2.9438 H   0  0  0  0  0  0
    7.7986    0.8539   -1.5801 H   0  0  0  0  0  0
   -2.0388   -0.1788    0.0214 H   0  0  0  0  0  0
   -1.2218   -1.6467    0.0054 H   0  0  0  0  0  0
  1  2  1  0  0  0
  1  6  2  0  0  0
  2  3  2  0  0  0
  2 23  1  0  0  0
  3  4  1  0  0  0
  4  5  2  0  0  0
  4 11  1  0  0  0
  5  6  1  0  0  0
  5  8  1  0  0  0
  6  7  1  0  0  0
  7 24  1  0  0  0
  7 25  1  0  0  0
  8  9  2  0  0  0
  9 10  1  0  0  0
  9 12  1  0  0  0
 10 11  2  0  0  0
 10 26  1  0  0  0
 11 27  1  0  0  0
 12 13  1  0  0  0
 12 28  1  0  0  0
 12 29  1  0  0  0
 13 14  1  0  0  0
 13 22  1  0  0  0
 14 15  1  0  0  0
 14 19  2  0  0  0
 15 16  2  0  0  0
 15 30  1  0  0  0
 16 17  1  0  0  0
 16 31  1  0  0  0
 17 18  2  0  0  0
 17 32  1  0  0  0
 18 19  1  0  0  0
 18 20  1  0  0  0
 19 33  1  0  0  0
 20 21  1  0  0  0
 21 34  1  0  0  0
 21 35  1  0  0  0
 21 36  1  0  0  0
 22 37  1  0  0  0
 22 38  1  0  0  0
 22 39  1  0  0  0
 23 40  1  0  0  0
 23 41  1  0  0  0
M  END
>  <Activity>
7.45593

>  <set_rl>
1

>  <Min_dist>
999.9

>  <Avg_dist>
999.9

>  <PC_uM>
0.097

>  <TG_uM>
0.015

>  <RL_uM>
0.035

$$$$
21-15
 Wcorina  11170919323D 1   1.00000     0.00000              
CORINA evaluation license 3.46 0067  05.08.2008
 42 44  0  0  0  0  0  0  0  0999 V2000
   -0.0160    1.3254    0.0093 N   0  0  0  0  0  0
    0.0021   -0.0041    0.0020 C   0  0  0  0  0  0
    1.1123   -0.7135   -0.0124 N   0  0  0  0  0  0
    2.3111   -0.1167   -0.0206 C   0  0  0  0  0  0
    2.3724    1.2970   -0.0136 C   0  0  0  0  0  0
    1.1058    2.0310    0.0024 C   0  0  0  0  0  0
    1.0809    3.4095    0.0096 N   0  0  0  0  0  0
    3.5480    1.9180   -0.0206 N   0  0  0  0  0  0
    4.6727    1.2415   -0.0340 C   0  0  0  0  0  0
    4.6877   -0.1515   -0.0420 C   0  0  0  0  0  0
    3.5112   -0.8476   -0.0355 C   0  0  0  0  0  0
    5.9804    1.9904   -0.0414 C   0  0  0  0  0  0
    6.3324    2.3449   -1.4186 N   0  0  0  0  0  0
    7.5155    3.0507   -1.6804 C   0  0  0  0  0  0
    8.3528    3.4136   -0.6362 C   0  0  0  0  0  0
    9.5188    4.1098   -0.8943 C   0  0  0  0  0  0
    9.8537    4.4469   -2.1972 C   0  0  0  0  0  0
    9.0197    4.0857   -3.2447 C   0  0  0  0  0  0
    7.8537    3.3831   -2.9900 C   0  0  0  0  0  0
    7.0373    3.0232   -4.0165 O   0  0  0  0  0  0
    7.4472    3.3975   -5.3333 C   0  0  0  0  0  0
   11.0011    5.1327   -2.4478 O   0  0  0  0  0  0
   11.8127    5.4728   -1.3219 C   0  0  0  0  0  0
   -1.2065   -0.6769    0.0104 N   0  0  0  0  0  0
    0.2322    3.8792    0.0199 H   0  0  0  0  0  0
    1.9120    3.9096    0.0043 H   0  0  0  0  0  0
    5.6287   -0.6814   -0.0534 H   0  0  0  0  0  0
    3.5043   -1.9276   -0.0411 H   0  0  0  0  0  0
    5.8826    2.8983    0.5538 H   0  0  0  0  0  0
    6.7623    1.3604    0.3828 H   0  0  0  0  0  0
    5.7471    2.0913   -2.1493 H   0  0  0  0  0  0
    8.0937    3.1524    0.3792 H   0  0  0  0  0  0
   10.1697    4.3920   -0.0800 H   0  0  0  0  0  0
    9.2813    4.3490   -4.2590 H   0  0  0  0  0  0
    8.4137    2.9451   -5.5553 H   0  0  0  0  0  0
    6.7089    3.0504   -6.0561 H   0  0  0  0  0  0
    7.5316    4.4826   -5.3928 H   0  0  0  0  0  0
   11.2406    6.0992   -0.6375 H   0  0  0  0  0  0
   12.1219    4.5623   -0.8086 H   0  0  0  0  0  0
   12.6947    6.0162   -1.6607 H   0  0  0  0  0  0
   -2.0388   -0.1788    0.0214 H   0  0  0  0  0  0
   -1.2218   -1.6467    0.0054 H   0  0  0  0  0  0
  1  2  1  0  0  0
  1  6  2  0  0  0
  2  3  2  0  0  0
  2 24  1  0  0  0
  3  4  1  0  0  0
  4  5  2  0  0  0
  4 11  1  0  0  0
  5  6  1  0  0  0
  5  8  1  0  0  0
  6  7  1  0  0  0
  7 25  1  0  0  0
  7 26  1  0  0  0
  8  9  2  0  0  0
  9 10  1  0  0  0
  9 12  1  0  0  0
 10 11  2  0  0  0
 10 27  1  0  0  0
 11 28  1  0  0  0
 12 13  1  0  0  0
 12 29  1  0  0  0
 12 30  1  0  0  0
 13 14  1  0  0  0
 13 31  1  0  0  0
 14 15  1  0  0  0
 14 19  2  0  0  0
 15 16  2  0  0  0
 15 32  1  0  0  0
 16 17  1  0  0  0
 16 33  1  0  0  0
 17 18  2  0  0  0
 17 22  1  0  0  0
 18 19  1  0  0  0
 18 34  1  0  0  0
 19 20  1  0  0  0
 20 21  1  0  0  0
 21 35  1  0  0  0
 21 36  1  0  0  0
 21 37  1  0  0  0
 22 23  1  0  0  0
 23 38  1  0  0  0
 23 39  1  0  0  0
 23 40  1  0  0  0
 24 41  1  0  0  0
 24 42  1  0  0  0
M  END
>  <Activity>
6.49485

>  <set_rl>
1

>  <Min_dist>
999.9

>  <Avg_dist>
999.9

>  <PC_uM>
5.5

>  <TG_uM>
0.14

>  <RL_uM>
0.32

$$$$
21-22
 Wcorina  11170919323D 1   1.00000     0.00000              
CORINA evaluation license 3.46 0067  05.08.2008
 37 39  0  0  0  0  0  0  0  0999 V2000
   -0.0160    1.3254    0.0093 N   0  0  0  0  0  0
    0.0021   -0.0041    0.0020 C   0  0  0  0  0  0
    1.1123   -0.7135   -0.0124 N   0  0  0  0  0  0
    2.3111   -0.1167   -0.0206 C   0  0  0  0  0  0
    2.3724    1.2970   -0.0136 C   0  0  0  0  0  0
    1.1058    2.0310    0.0024 C   0  0  0  0  0  0
    1.0809    3.4095    0.0096 N   0  0  0  0  0  0
    3.5480    1.9180   -0.0206 N   0  0  0  0  0  0
    4.6727    1.2415   -0.0340 C   0  0  0  0  0  0
    4.6877   -0.1515   -0.0420 C   0  0  0  0  0  0
    3.5112   -0.8476   -0.0355 C   0  0  0  0  0  0
    5.9804    1.9904   -0.0414 C   0  0  0  0  0  0
    6.3334    2.3458   -1.4223 N   0  0  0  0  0  0
    7.4157    3.2305   -1.4510 C   0  0  0  0  0  0
    8.6358    2.8551   -0.9043 C   0  0  0  0  0  0
    9.7034    3.7309   -0.9339 C   0  0  0  0  0  0
    9.5587    4.9819   -1.5077 C   0  0  0  0  0  0
    8.3444    5.3596   -2.0530 C   0  0  0  0  0  0
    7.2743    4.4851   -2.0318 C   0  0  0  0  0  0
    5.7533    4.9561   -2.7236 Cl  0  0  0  0  0  0
   10.9031    6.0796   -1.5428 Cl  0  0  0  0  0  0
    6.6141    1.1445   -2.2198 C   0  0  0  0  0  0
   -1.2065   -0.6769    0.0104 N   0  0  0  0  0  0
    0.2322    3.8792    0.0199 H   0  0  0  0  0  0
    1.9120    3.9096    0.0043 H   0  0  0  0  0  0
    5.6287   -0.6814   -0.0534 H   0  0  0  0  0  0
    3.5043   -1.9276   -0.0411 H   0  0  0  0  0  0
    5.8826    2.8983    0.5538 H   0  0  0  0  0  0
    6.7623    1.3604    0.3828 H   0  0  0  0  0  0
    8.7497    1.8791   -0.4559 H   0  0  0  0  0  0
   10.6522    3.4392   -0.5084 H   0  0  0  0  0  0
    8.2341    6.3367   -2.4995 H   0  0  0  0  0  0
    5.7309    0.5060   -2.2381 H   0  0  0  0  0  0
    6.8726    1.4363   -3.2377 H   0  0  0  0  0  0
    7.4471    0.5998   -1.7753 H   0  0  0  0  0  0
   -2.0388   -0.1788    0.0214 H   0  0  0  0  0  0
   -1.2218   -1.6467    0.0054 H   0  0  0  0  0  0
  1  2  1  0  0  0
  1  6  2  0  0  0
  2  3  2  0  0  0
  2 23  1  0  0  0
  3  4  1  0  0  0
  4  5  2  0  0  0
  4 11  1  0  0  0
  5  6  1  0  0  0
  5  8  1  0  0  0
  6  7  1  0  0  0
  7 24  1  0  0  0
  7 25  1  0  0  0
  8  9  2  0  0  0
  9 10  1  0  0  0
  9 12  1  0  0  0
 10 11  2  0  0  0
 10 26  1  0  0  0
 11 27  1  0  0  0
 12 13  1  0  0  0
 12 28  1  0  0  0
 12 29  1  0  0  0
 13 14  1  0  0  0
 13 22  1  0  0  0
 14 15  1  0  0  0
 14 19  2  0  0  0
 15 16  2  0  0  0
 15 30  1  0  0  0
 16 17  1  0  0  0
 16 31  1  0  0  0
 17 18  2  0  0  0
 17 21  1  0  0  0
 18 19  1  0  0  0
 18 32  1  0  0  0
 19 20  1  0  0  0
 22 33  1  0  0  0
 22 34  1  0  0  0
 22 35  1  0  0  0
 23 36  1  0  0  0
 23 37  1  0  0  0
M  END
>  <Activity>
7.23657

>  <set_rl>
1

>  <Min_dist>
999.9

>  <Avg_dist>
999.9

>  <PC_uM>
0.5

>  <TG_uM>
0.05

>  <RL_uM>
0.058

$$$$
21-44
 Wcorina  11170919323D 1   1.00000     0.00000              
CORINA evaluation license 3.46 0067  05.08.2008
 41 43  0  0  0  0  0  0  0  0999 V2000
   -1.1256    1.6480   -1.3129 N   0  0  0  0  0  0
   -1.2207    0.3244   -1.3971 C   0  0  0  0  0  0
   -0.1945   -0.4870   -1.2401 N   0  0  0  0  0  0
    1.0290   -0.0083   -0.9809 C   0  0  0  0  0  0
    1.2088    1.3914   -0.8766 C   0  0  0  0  0  0
    0.0317    2.2423   -1.0607 C   0  0  0  0  0  0
    0.1242    3.6152   -0.9750 N   0  0  0  0  0  0
    2.4114    1.8964   -0.6192 N   0  0  0  0  0  0
    3.4543    1.1163   -0.4564 C   0  0  0  0  0  0
    3.3510   -0.2701   -0.5458 C   0  0  0  0  0  0
    2.1412   -0.8497   -0.8084 C   0  0  0  0  0  0
    4.7971    1.7358   -0.1662 C   0  0  0  0  0  0
    5.4433    2.1132   -1.4257 N   0  0  0  0  0  0
    5.2353    3.3782   -1.9614 C   0  0  0  0  0  0
    5.8509    3.7350   -3.1593 C   0  0  0  0  0  0
    5.6492    4.9771   -3.6893 C   0  0  0  0  0  0
    4.8215    5.8933   -3.0268 C   0  0  0  0  0  0
    4.2041    5.5301   -1.8226 C   0  0  0  0  0  0
    4.4073    4.2842   -1.3021 C   0  0  0  0  0  0
    4.6023    7.2295   -3.5924 C   0  0  0  0  0  0
    4.6706    7.3993   -4.7916 O   0  0  0  0  0  0
    4.2922    8.3909   -2.6834 C   0  0  0  0  0  0
    2.9914    8.8424   -2.9308 F   0  0  0  0  0  0
    4.3978    7.9806   -1.3501 F   0  0  0  0  0  0
    5.1997    9.4277   -2.9256 F   0  0  0  0  0  0
    6.2437    1.2286   -2.0681 C   0  0  0  0  0  0
    6.9373    0.4621   -2.6248 C   0  0  0  0  0  0
   -2.4603   -0.2290   -1.6626 N   0  0  0  0  0  0
   -0.6663    4.1633   -1.1001 H   0  0  0  0  0  0
    0.9797    4.0330   -0.7896 H   0  0  0  0  0  0
    4.2267   -0.8870   -0.4076 H   0  0  0  0  0  0
    2.0429   -1.9228   -0.8806 H   0  0  0  0  0  0
    4.6619    2.6227    0.4528 H   0  0  0  0  0  0
    5.4228    1.0162    0.3618 H   0  0  0  0  0  0
    6.4887    3.0282   -3.6693 H   0  0  0  0  0  0
    6.1273    5.2531   -4.6175 H   0  0  0  0  0  0
    3.5656    6.2334   -1.3086 H   0  0  0  0  0  0
    3.9288    4.0022   -0.3759 H   0  0  0  0  0  0
    7.5576   -0.2234   -3.1226 H   0  0  0  0  0  0
   -3.2325    0.3458   -1.7822 H   0  0  0  0  0  0
   -2.5574   -1.1918   -1.7293 H   0  0  0  0  0  0
  1  2  1  0  0  0
  1  6  2  0  0  0
  2  3  2  0  0  0
  2 28  1  0  0  0
  3  4  1  0  0  0
  4  5  2  0  0  0
  4 11  1  0  0  0
  5  6  1  0  0  0
  5  8  1  0  0  0
  6  7  1  0  0  0
  7 29  1  0  0  0
  7 30  1  0  0  0
  8  9  2  0  0  0
  9 10  1  0  0  0
  9 12  1  0  0  0
 10 11  2  0  0  0
 10 31  1  0  0  0
 11 32  1  0  0  0
 12 13  1  0  0  0
 12 33  1  0  0  0
 12 34  1  0  0  0
 13 14  1  0  0  0
 13 26  1  0  0  0
 14 15  1  0  0  0
 14 19  2  0  0  0
 15 16  2  0  0  0
 15 35  1  0  0  0
 16 17  1  0  0  0
 16 36  1  0  0  0
 17 18  2  0  0  0
 17 20  1  0  0  0
 18 19  1  0  0  0
 18 37  1  0  0  0
 19 38  1  0  0  0
 20 21  2  0  0  0
 20 22  1  0  0  0
 22 23  1  0  0  0
 22 24  1  0  0  0
 22 25  1  0  0  0
 26 27  3  0  0  0
 27 39  1  0  0  0
 28 40  1  0  0  0
 28 41  1  0  0  0
M  END
>  <Activity>
8.12494

>  <set_rl>
1

>  <Min_dist>
999.9

>  <Avg_dist>
999.9

>  <PC_uM>
0.12

>  <TG_uM>
0.054

>  <RL_uM>
0.0075

$$$$
22-4
 Wcorina  11170919323D 1   1.00000     0.00000              
CORINA evaluation license 3.46 0067  05.08.2008
 34 36  0  0  0  0  0  0  0  0999 V2000
   -0.0017    1.2930   -0.3891 N   0  0  0  0  0  0
    0.0267   -0.0354   -0.4493 C   0  0  0  0  0  0
    1.1515   -0.7242   -0.4263 N   0  0  0  0  0  0
    2.3311   -0.0943   -0.3395 C   0  0  0  0  0  0
    2.3523    1.3171   -0.2731 C   0  0  0  0  0  0
    1.1109    2.0048   -0.3018 C   0  0  0  0  0  0
    1.0650    3.3827   -0.2406 N   0  0  0  0  0  0
    3.5121    1.9682   -0.1863 N   0  0  0  0  0  0
    4.6585    1.3174   -0.1605 C   0  0  0  0  0  0
    4.7065   -0.0825   -0.2235 C   0  0  0  0  0  0
    3.5496   -0.7987   -0.3123 C   0  0  0  0  0  0
    6.1632    2.2269   -0.0448 S   0  0  0  0  0  0
    5.6267    3.8997   -0.1804 C   0  0  0  0  0  0
    5.5717    4.7065    0.9476 C   0  0  0  0  0  0
    5.1510    6.0183    0.8385 C   0  0  0  0  0  0
    4.7837    6.5301   -0.3925 C   0  0  0  0  0  0
    4.8358    5.7323   -1.5209 C   0  0  0  0  0  0
    5.2618    4.4182   -1.4214 C   0  0  0  0  0  0
    5.3189    3.6342   -2.5311 O   0  0  0  0  0  0
    4.9299    4.2328   -3.7690 C   0  0  0  0  0  0
   -1.1718   -0.7225   -0.5392 N   0  0  0  0  0  0
    0.2103    3.8409   -0.2614 H   0  0  0  0  0  0
    1.8875    3.8930   -0.1768 H   0  0  0  0  0  0
    5.6581   -0.5927   -0.2010 H   0  0  0  0  0  0
    3.5677   -1.8774   -0.3614 H   0  0  0  0  0  0
    5.8573    4.3092    1.9104 H   0  0  0  0  0  0
    5.1086    6.6452    1.7168 H   0  0  0  0  0  0
    4.4549    7.5557   -0.4729 H   0  0  0  0  0  0
    4.5482    6.1354   -2.4807 H   0  0  0  0  0  0
    3.8952    4.5689   -3.7008 H   0  0  0  0  0  0
    5.5757    5.0854   -3.9792 H   0  0  0  0  0  0
    5.0220    3.5008   -4.5714 H   0  0  0  0  0  0
   -2.0102   -0.2350   -0.5572 H   0  0  0  0  0  0
   -1.1731   -1.6915   -0.5842 H   0  0  0  0  0  0
  1  2  1  0  0  0
  1  6  2  0  0  0
  2  3  2  0  0  0
  2 21  1  0  0  0
  3  4  1  0  0  0
  4  5  2  0  0  0
  4 11  1  0  0  0
  5  6  1  0  0  0
  5  8  1  0  0  0
  6  7  1  0  0  0
  7 22  1  0  0  0
  7 23  1  0  0  0
  8  9  2  0  0  0
  9 10  1  0  0  0
  9 12  1  0  0  0
 10 11  2  0  0  0
 10 24  1  0  0  0
 11 25  1  0  0  0
 12 13  1  0  0  0
 13 14  1  0  0  0
 13 18  2  0  0  0
 14 15  2  0  0  0
 14 26  1  0  0  0
 15 16  1  0  0  0
 15 27  1  0  0  0
 16 17  2  0  0  0
 16 28  1  0  0  0
 17 18  1  0  0  0
 17 29  1  0  0  0
 18 19  1  0  0  0
 19 20  1  0  0  0
 20 30  1  0  0  0
 20 31  1  0  0  0
 20 32  1  0  0  0
 21 33  1  0  0  0
 21 34  1  0  0  0
M  END
>  <Activity>
6.63827

>  <set_rl>
1

>  <Min_dist>
999.9

>  <Avg_dist>
999.9

>  <PC_uM>
2.2

>  <TG_uM>
0.058

>  <RL_uM>
0.23

$$$$
22-8
 Wcorina  11170919323D 1   1.00000     0.00000              
CORINA evaluation license 3.46 0067  05.08.2008
 36 38  0  0  0  0  0  0  0  0999 V2000
   -0.0160    1.3254    0.0093 N   0  0  0  0  0  0
    0.0021   -0.0041    0.0020 C   0  0  0  0  0  0
    1.1123   -0.7135   -0.0124 N   0  0  0  0  0  0
    2.3111   -0.1167   -0.0206 C   0  0  0  0  0  0
    2.3724    1.2970   -0.0136 C   0  0  0  0  0  0
    1.1058    2.0310    0.0024 C   0  0  0  0  0  0
    1.0809    3.4095    0.0096 N   0  0  0  0  0  0
    3.5480    1.9180   -0.0206 N   0  0  0  0  0  0
    4.6727    1.2415   -0.0340 C   0  0  0  0  0  0
    4.6877   -0.1515   -0.0420 C   0  0  0  0  0  0
    3.5112   -0.8476   -0.0355 C   0  0  0  0  0  0
    6.2017    2.1171   -0.0426 S   0  0  0  0  0  0
    7.1662    1.2349   -0.6002 O   0  0  0  0  0  0
    5.9242    3.4039   -0.5778 O   0  0  0  0  0  0
    6.6690    2.3673    1.6378 C   0  0  0  0  0  0
    7.4473    1.4257    2.2852 C   0  0  0  0  0  0
    7.8150    1.6195    3.6027 C   0  0  0  0  0  0
    7.4026    2.7602    4.2761 C   0  0  0  0  0  0
    6.6217    3.7035    3.6242 C   0  0  0  0  0  0
    6.2614    3.5077    2.3050 C   0  0  0  0  0  0
    7.7626    2.9530    5.5723 O   0  0  0  0  0  0
    7.3020    4.1500    6.2023 C   0  0  0  0  0  0
   -1.2065   -0.6769    0.0104 N   0  0  0  0  0  0
    0.2322    3.8792    0.0199 H   0  0  0  0  0  0
    1.9120    3.9096    0.0043 H   0  0  0  0  0  0
    5.6287   -0.6814   -0.0534 H   0  0  0  0  0  0
    3.5043   -1.9276   -0.0411 H   0  0  0  0  0  0
    7.7678    0.5377    1.7607 H   0  0  0  0  0  0
    8.4227    0.8835    4.1081 H   0  0  0  0  0  0
    6.2994    4.5923    4.1462 H   0  0  0  0  0  0
    5.6575    4.2441    1.7956 H   0  0  0  0  0  0
    7.6833    5.0156    5.6606 H   0  0  0  0  0  0
    6.2122    4.1681    6.1953 H   0  0  0  0  0  0
    7.6592    4.1793    7.2317 H   0  0  0  0  0  0
   -2.0388   -0.1788    0.0214 H   0  0  0  0  0  0
   -1.2218   -1.6467    0.0054 H   0  0  0  0  0  0
  1  2  1  0  0  0
  1  6  2  0  0  0
  2  3  2  0  0  0
  2 23  1  0  0  0
  3  4  1  0  0  0
  4  5  2  0  0  0
  4 11  1  0  0  0
  5  6  1  0  0  0
  5  8  1  0  0  0
  6  7  1  0  0  0
  7 24  1  0  0  0
  7 25  1  0  0  0
  8  9  2  0  0  0
  9 10  1  0  0  0
  9 12  1  0  0  0
 10 11  2  0  0  0
 10 26  1  0  0  0
 11 27  1  0  0  0
 12 13  2  0  0  0
 12 14  2  0  0  0
 12 15  1  0  0  0
 15 16  1  0  0  0
 15 20  2  0  0  0
 16 17  2  0  0  0
 16 28  1  0  0  0
 17 18  1  0  0  0
 17 29  1  0  0  0
 18 19  2  0  0  0
 18 21  1  0  0  0
 19 20  1  0  0  0
 19 30  1  0  0  0
 20 31  1  0  0  0
 21 22  1  0  0  0
 22 32  1  0  0  0
 22 33  1  0  0  0
 22 34  1  0  0  0
 23 35  1  0  0  0
 23 36  1  0  0  0
M  END
>  <Activity>
5.69897

>  <set_rl>
1

>  <Min_dist>
999.9

>  <Avg_dist>
999.9

>  <PC_uM>
10.5

>  <TG_uM>
1

>  <RL_uM>
2

$$$$
22-12
 Wcorina  11170919323D 1   1.00000     0.00000              
CORINA evaluation license 3.46 0067  05.08.2008
 35 37  0  0  0  0  0  0  0  0999 V2000
   -0.0155    1.3214   -0.0107 N   0  0  0  0  0  0
    0.0034   -0.0084   -0.0364 C   0  0  0  0  0  0
    1.1246   -0.7030   -0.0586 N   0  0  0  0  0  0
    2.3101   -0.0780   -0.0558 C   0  0  0  0  0  0
    2.3413    1.3345   -0.0289 C   0  0  0  0  0  0
    1.1033    2.0286   -0.0058 C   0  0  0  0  0  0
    1.0671    3.4078    0.0205 N   0  0  0  0  0  0
    3.5071    1.9807   -0.0252 N   0  0  0  0  0  0
    4.6498    1.3244   -0.0463 C   0  0  0  0  0  0
    4.6882   -0.0766   -0.0735 C   0  0  0  0  0  0
    3.5249   -0.7884   -0.0786 C   0  0  0  0  0  0
    5.8430    2.0371   -0.0419 N   0  0  0  0  0  0
    5.8246    3.4334   -0.1400 C   0  0  0  0  0  0
    6.7756    4.1896    0.5326 C   0  0  0  0  0  0
    6.7571    5.5670    0.4350 C   0  0  0  0  0  0
    5.7890    6.1952   -0.3346 C   0  0  0  0  0  0
    4.8387    5.4406   -1.0067 C   0  0  0  0  0  0
    4.8589    4.0629   -0.9144 C   0  0  0  0  0  0
    5.7712    7.5516   -0.4298 O   0  0  0  0  0  0
    4.7464    8.1317   -1.2393 C   0  0  0  0  0  0
   -1.2012   -0.6904   -0.0397 N   0  0  0  0  0  0
    0.2147    3.8704    0.0358 H   0  0  0  0  0  0
    1.8941    3.9147    0.0238 H   0  0  0  0  0  0
    5.6374   -0.5915   -0.0909 H   0  0  0  0  0  0
    3.5356   -1.8682   -0.0991 H   0  0  0  0  0  0
    6.6884    1.5669    0.0290 H   0  0  0  0  0  0
    7.5293    3.7007    1.1321 H   0  0  0  0  0  0
    7.4964    6.1553    0.9582 H   0  0  0  0  0  0
    4.0851    5.9305   -1.6054 H   0  0  0  0  0  0
    4.1215    3.4753   -1.4411 H   0  0  0  0  0  0
    4.8416    7.7675   -2.2623 H   0  0  0  0  0  0
    3.7696    7.8531   -0.8439 H   0  0  0  0  0  0
    4.8462    9.2171   -1.2293 H   0  0  0  0  0  0
   -2.0371   -0.1985   -0.0233 H   0  0  0  0  0  0
   -1.2094   -1.6602   -0.0583 H   0  0  0  0  0  0
  1  2  1  0  0  0
  1  6  2  0  0  0
  2  3  2  0  0  0
  2 21  1  0  0  0
  3  4  1  0  0  0
  4  5  2  0  0  0
  4 11  1  0  0  0
  5  6  1  0  0  0
  5  8  1  0  0  0
  6  7  1  0  0  0
  7 22  1  0  0  0
  7 23  1  0  0  0
  8  9  2  0  0  0
  9 10  1  0  0  0
  9 12  1  0  0  0
 10 11  2  0  0  0
 10 24  1  0  0  0
 11 25  1  0  0  0
 12 13  1  0  0  0
 12 26  1  0  0  0
 13 14  1  0  0  0
 13 18  2  0  0  0
 14 15  2  0  0  0
 14 27  1  0  0  0
 15 16  1  0  0  0
 15 28  1  0  0  0
 16 17  2  0  0  0
 16 19  1  0  0  0
 17 18  1  0  0  0
 17 29  1  0  0  0
 18 30  1  0  0  0
 19 20  1  0  0  0
 20 31  1  0  0  0
 20 32  1  0  0  0
 20 33  1  0  0  0
 21 34  1  0  0  0
 21 35  1  0  0  0
M  END
>  <Activity>
5.42022

>  <set_rl>
1

>  <Min_dist>
999.9

>  <Avg_dist>
999.9

>  <PC_uM>
90.4

>  <TG_uM>
2.8

>  <RL_uM>
3.8

$$$$
22-14
 Wcorina  11170919323D 1   1.00000     0.00000              
CORINA evaluation license 3.46 0067  05.08.2008
 39 41  0  0  0  0  0  0  0  0999 V2000
    2.4268   -2.6170    1.1857 N   0  0  0  0  0  0
    1.2665   -2.0002    0.9792 C   0  0  0  0  0  0
    1.1891   -0.7339    0.6179 N   0  0  0  0  0  0
    2.3026   -0.0089    0.4430 C   0  0  0  0  0  0
    3.5594   -0.6204    0.6511 C   0  0  0  0  0  0
    3.5809   -1.9858    1.0385 C   0  0  0  0  0  0
    4.7764   -2.6395    1.2569 N   0  0  0  0  0  0
    4.6822    0.0781    0.4835 N   0  0  0  0  0  0
    4.6487    1.3453    0.1227 C   0  0  0  0  0  0
    3.4350    2.0108   -0.0991 C   0  0  0  0  0  0
    2.2558    1.3439    0.0575 C   0  0  0  0  0  0
    5.8429    2.0370   -0.0411 N   0  0  0  0  0  0
    7.0635    1.3577    0.0502 C   0  0  0  0  0  0
    7.1562    0.0366   -0.3629 C   0  0  0  0  0  0
    8.3663   -0.6335   -0.2712 C   0  0  0  0  0  0
    9.4834    0.0158    0.2334 C   0  0  0  0  0  0
    9.3936    1.3324    0.6458 C   0  0  0  0  0  0
    8.1888    2.0087    0.5507 C   0  0  0  0  0  0
    8.1028    3.3062    0.9516 O   0  0  0  0  0  0
    9.2962    3.9104    1.4544 C   0  0  0  0  0  0
    8.4582   -1.9284   -0.6759 O   0  0  0  0  0  0
    9.7354   -2.5573   -0.5532 C   0  0  0  0  0  0
    0.0938   -2.7157    1.1498 N   0  0  0  0  0  0
    4.7777   -3.5726    1.5216 H   0  0  0  0  0  0
    5.6155   -2.1657    1.1456 H   0  0  0  0  0  0
    3.4339    3.0499   -0.3935 H   0  0  0  0  0  0
    1.3114    1.8405   -0.1098 H   0  0  0  0  0  0
    5.8307    2.9905   -0.2186 H   0  0  0  0  0  0
    6.2864   -0.4694   -0.7552 H   0  0  0  0  0  0
   10.4251   -0.5082    0.3047 H   0  0  0  0  0  0
   10.2649    1.8353    1.0386 H   0  0  0  0  0  0
    9.0894    4.9424    1.7378 H   0  0  0  0  0  0
    9.6441    3.3569    2.3265 H   0  0  0  0  0  0
   10.0654    3.8928    0.6823 H   0  0  0  0  0  0
   10.4677   -2.0118   -1.1484 H   0  0  0  0  0  0
   10.0428   -2.5548    0.4926 H   0  0  0  0  0  0
    9.6701   -3.5851   -0.9102 H   0  0  0  0  0  0
    0.1287   -3.6481    1.4149 H   0  0  0  0  0  0
   -0.7629   -2.2846    1.0042 H   0  0  0  0  0  0
  1  2  1  0  0  0
  1  6  2  0  0  0
  2  3  2  0  0  0
  2 23  1  0  0  0
  3  4  1  0  0  0
  4  5  2  0  0  0
  4 11  1  0  0  0
  5  6  1  0  0  0
  5  8  1  0  0  0
  6  7  1  0  0  0
  7 24  1  0  0  0
  7 25  1  0  0  0
  8  9  2  0  0  0
  9 10  1  0  0  0
  9 12  1  0  0  0
 10 11  2  0  0  0
 10 26  1  0  0  0
 11 27  1  0  0  0
 12 13  1  0  0  0
 12 28  1  0  0  0
 13 14  1  0  0  0
 13 18  2  0  0  0
 14 15  2  0  0  0
 14 29  1  0  0  0
 15 16  1  0  0  0
 15 21  1  0  0  0
 16 17  2  0  0  0
 16 30  1  0  0  0
 17 18  1  0  0  0
 17 31  1  0  0  0
 18 19  1  0  0  0
 19 20  1  0  0  0
 20 32  1  0  0  0
 20 33  1  0  0  0
 20 34  1  0  0  0
 21 22  1  0  0  0
 22 35  1  0  0  0
 22 36  1  0  0  0
 22 37  1  0  0  0
 23 38  1  0  0  0
 23 39  1  0  0  0
M  END
>  <Activity>
5.4437

>  <set_rl>
1

>  <Min_dist>
999.9

>  <Avg_dist>
999.9

>  <PC_uM>
16.1

>  <TG_uM>
0.73

>  <RL_uM>
3.6

$$$$
21-34
 Wcorina  11170919323D 1   1.00000     0.00000              
CORINA evaluation license 3.46 0067  05.08.2008
 39 42  0  0  0  0  0  0  0  0999 V2000
   -0.0160    1.3254    0.0093 N   0  0  0  0  0  0
    0.0021   -0.0041    0.0020 C   0  0  0  0  0  0
    1.1123   -0.7135   -0.0124 N   0  0  0  0  0  0
    2.3111   -0.1167   -0.0206 C   0  0  0  0  0  0
    2.3724    1.2970   -0.0136 C   0  0  0  0  0  0
    1.1058    2.0310    0.0024 C   0  0  0  0  0  0
    1.0809    3.4095    0.0096 N   0  0  0  0  0  0
    3.5480    1.9180   -0.0206 N   0  0  0  0  0  0
    4.6727    1.2415   -0.0340 C   0  0  0  0  0  0
    4.6877   -0.1515   -0.0420 C   0  0  0  0  0  0
    3.5112   -0.8476   -0.0355 C   0  0  0  0  0  0
    5.9804    1.9904   -0.0414 C   0  0  0  0  0  0
    6.5201    2.2818    1.6658 S   0  0  0  0  0  0
    8.0376    3.1528    1.4587 C   0  0  0  0  0  0
    8.5106    3.4367    0.1939 C   0  0  0  0  0  0
    9.7075    4.1238    0.0201 C   0  0  0  0  0  0
   10.4447    4.5342    1.0893 C   0  0  0  0  0  0
    9.9987    4.2654    2.3945 C   0  0  0  0  0  0
    8.7782    3.5720    2.5854 C   0  0  0  0  0  0
    8.3309    3.3099    3.8893 C   0  0  0  0  0  0
    9.0707    3.7294    4.9530 C   0  0  0  0  0  0
   10.2683    4.4168    4.7666 C   0  0  0  0  0  0
   10.7391    4.6772    3.5162 C   0  0  0  0  0  0
   -1.2065   -0.6769    0.0104 N   0  0  0  0  0  0
    0.2322    3.8792    0.0199 H   0  0  0  0  0  0
    1.9120    3.9096    0.0043 H   0  0  0  0  0  0
    5.6287   -0.6814   -0.0534 H   0  0  0  0  0  0
    3.5043   -1.9276   -0.0411 H   0  0  0  0  0  0
    6.7335    1.4014   -0.5649 H   0  0  0  0  0  0
    5.8491    2.9460   -0.5490 H   0  0  0  0  0  0
    7.9453    3.1216   -0.6707 H   0  0  0  0  0  0
   10.0583    4.3349   -0.9793 H   0  0  0  0  0  0
   11.3719    5.0658    0.9340 H   0  0  0  0  0  0
    7.4044    2.7784    4.0486 H   0  0  0  0  0  0
    8.7239    3.5266    5.9555 H   0  0  0  0  0  0
   10.8362    4.7391    5.6268 H   0  0  0  0  0  0
   11.6694    5.2102    3.3867 H   0  0  0  0  0  0
   -2.0388   -0.1788    0.0214 H   0  0  0  0  0  0
   -1.2218   -1.6467    0.0054 H   0  0  0  0  0  0
  1  2  1  0  0  0
  1  6  2  0  0  0
  2  3  2  0  0  0
  2 24  1  0  0  0
  3  4  1  0  0  0
  4  5  2  0  0  0
  4 11  1  0  0  0
  5  6  1  0  0  0
  5  8  1  0  0  0
  6  7  1  0  0  0
  7 25  1  0  0  0
  7 26  1  0  0  0
  8  9  2  0  0  0
  9 10  1  0  0  0
  9 12  1  0  0  0
 10 11  2  0  0  0
 10 27  1  0  0  0
 11 28  1  0  0  0
 12 13  1  0  0  0
 12 29  1  0  0  0
 12 30  1  0  0  0
 13 14  1  0  0  0
 14 15  1  0  0  0
 14 19  2  0  0  0
 15 16  2  0  0  0
 15 31  1  0  0  0
 16 17  1  0  0  0
 16 32  1  0  0  0
 17 18  2  0  0  0
 17 33  1  0  0  0
 18 19  1  0  0  0
 18 23  1  0  0  0
 19 20  1  0  0  0
 20 21  2  0  0  0
 20 34  1  0  0  0
 21 22  1  0  0  0
 21 35  1  0  0  0
 22 23  2  0  0  0
 22 36  1  0  0  0
 23 37  1  0  0  0
 24 38  1  0  0  0
 24 39  1  0  0  0
M  END
>  <Activity>
6.79588

>  <set_rl>
1

>  <Min_dist>
999.9

>  <Avg_dist>
999.9

>  <PC_uM>
0.47

>  <TG_uM>
0.049

>  <RL_uM>
0.16

$$$$
22-22
 Wcorina  11170919323D 1   1.00000     0.00000              
CORINA evaluation license 3.46 0067  05.08.2008
 46 48  0  0  0  0  0  0  0  0999 V2000
    6.2521    7.6137    1.8480 N   0  0  0  0  0  0
    5.9205    8.1805    0.6913 C   0  0  0  0  0  0
    5.6363    7.4784   -0.3887 N   0  0  0  0  0  0
    5.6728    6.1391   -0.3564 C   0  0  0  0  0  0
    6.0199    5.4909    0.8503 C   0  0  0  0  0  0
    6.3156    6.2982    1.9799 C   0  0  0  0  0  0
    6.6616    5.7251    3.1866 N   0  0  0  0  0  0
    6.0632    4.1600    0.9096 N   0  0  0  0  0  0
    5.7859    3.4218   -0.1464 C   0  0  0  0  0  0
    5.4352    4.0025   -1.3731 C   0  0  0  0  0  0
    5.3749    5.3599   -1.4899 C   0  0  0  0  0  0
    5.8430    2.0371   -0.0415 N   0  0  0  0  0  0
    7.0511    1.3674   -0.2668 C   0  0  0  0  0  0
    8.2163    2.0914   -0.4814 C   0  0  0  0  0  0
    9.4131    1.4289   -0.7047 C   0  0  0  0  0  0
    9.4467    0.0395   -0.7137 C   0  0  0  0  0  0
    8.2800   -0.6845   -0.4988 C   0  0  0  0  0  0
    7.0850   -0.0206   -0.2701 C   0  0  0  0  0  0
    8.3120   -2.0440   -0.5075 O   0  0  0  0  0  0
    7.0756   -2.7235   -0.2796 C   0  0  0  0  0  0
   10.6221   -0.6121   -0.9334 O   0  0  0  0  0  0
   11.4146   -0.9250    0.2137 C   0  0  0  0  0  0
   10.5541    2.1381   -0.9153 O   0  0  0  0  0  0
   10.4458    3.5629   -0.8928 C   0  0  0  0  0  0
    4.6385    1.2785    0.3050 C   0  0  0  0  0  0
    5.8713    9.5620    0.6180 N   0  0  0  0  0  0
    6.8618    6.2877    3.9510 H   0  0  0  0  0  0
    6.7047    4.7597    3.2704 H   0  0  0  0  0  0
    5.2127    3.3759   -2.2242 H   0  0  0  0  0  0
    5.1058    5.8244   -2.4271 H   0  0  0  0  0  0
    8.1899    3.1711   -0.4747 H   0  0  0  0  0  0
    6.1792   -0.5831   -0.0983 H   0  0  0  0  0  0
    7.2414   -3.8003   -0.3125 H   0  0  0  0  0  0
    6.6835   -2.4459    0.6988 H   0  0  0  0  0  0
    6.3590   -2.4424   -1.0513 H   0  0  0  0  0  0
   11.6826   -0.0044    0.7323 H   0  0  0  0  0  0
   10.8446   -1.5674    0.8849 H   0  0  0  0  0  0
   12.3213   -1.4417   -0.1010 H   0  0  0  0  0  0
   10.0770    3.8839    0.0814 H   0  0  0  0  0  0
   11.4257    4.0046   -1.0739 H   0  0  0  0  0  0
    9.7522    3.8868   -1.6687 H   0  0  0  0  0  0
    4.1066    1.0052   -0.6063 H   0  0  0  0  0  0
    4.9211    0.3751    0.8455 H   0  0  0  0  0  0
    3.9918    1.8907    0.9335 H   0  0  0  0  0  0
    6.0765   10.0968    1.4008 H   0  0  0  0  0  0
    5.6317    9.9952   -0.2161 H   0  0  0  0  0  0
  1  2  1  0  0  0
  1  6  2  0  0  0
  2  3  2  0  0  0
  2 26  1  0  0  0
  3  4  1  0  0  0
  4  5  2  0  0  0
  4 11  1  0  0  0
  5  6  1  0  0  0
  5  8  1  0  0  0
  6  7  1  0  0  0
  7 27  1  0  0  0
  7 28  1  0  0  0
  8  9  2  0  0  0
  9 10  1  0  0  0
  9 12  1  0  0  0
 10 11  2  0  0  0
 10 29  1  0  0  0
 11 30  1  0  0  0
 12 13  1  0  0  0
 12 25  1  0  0  0
 13 14  1  0  0  0
 13 18  2  0  0  0
 14 15  2  0  0  0
 14 31  1  0  0  0
 15 16  1  0  0  0
 15 23  1  0  0  0
 16 17  2  0  0  0
 16 21  1  0  0  0
 17 18  1  0  0  0
 17 19  1  0  0  0
 18 32  1  0  0  0
 19 20  1  0  0  0
 20 33  1  0  0  0
 20 34  1  0  0  0
 20 35  1  0  0  0
 21 22  1  0  0  0
 22 36  1  0  0  0
 22 37  1  0  0  0
 22 38  1  0  0  0
 23 24  1  0  0  0
 24 39  1  0  0  0
 24 40  1  0  0  0
 24 41  1  0  0  0
 25 42  1  0  0  0
 25 43  1  0  0  0
 25 44  1  0  0  0
 26 45  1  0  0  0
 26 46  1  0  0  0
M  END
>  <Activity>
8.4318

>  <set_rl>
1

>  <Min_dist>
999.9

>  <Avg_dist>
999.9

>  <PC_uM>
0.021

>  <TG_uM>
0.0076

>  <RL_uM>
0.0037

$$$$
22-23
 Wcorina  11170919323D 1   1.00000     0.00000              
CORINA evaluation license 3.46 0067  05.08.2008
 40 43  0  0  0  0  0  0  0  0999 V2000
   -0.0160    1.3260    0.0093 N   0  0  0  0  0  0
    0.0021   -0.0041    0.0020 C   0  0  0  0  0  0
    1.1227   -0.6997   -0.0124 N   0  0  0  0  0  0
    2.3087   -0.0756   -0.0204 C   0  0  0  0  0  0
    2.3409    1.3371   -0.0131 C   0  0  0  0  0  0
    1.1033    2.0324    0.0024 C   0  0  0  0  0  0
    1.0681    3.4118    0.0097 N   0  0  0  0  0  0
    3.5070    1.9824   -0.0203 N   0  0  0  0  0  0
    4.6492    1.3252   -0.0343 C   0  0  0  0  0  0
    4.6867   -0.0761   -0.0427 C   0  0  0  0  0  0
    3.5229   -0.7871   -0.0353 C   0  0  0  0  0  0
    5.8431    2.0371   -0.0415 N   0  0  0  0  0  0
    7.0566    1.3618   -0.1614 C   0  0  0  0  0  0
    7.5983    1.1202   -1.4063 C   0  0  0  0  0  0
    8.8089    0.4469   -1.5367 C   0  0  0  0  0  0
    9.4911    0.0083   -0.4427 C   0  0  0  0  0  0
    8.9737    0.2342    0.8441 C   0  0  0  0  0  0
    7.7450    0.9241    0.9904 C   0  0  0  0  0  0
    7.2324    1.1543    2.2766 C   0  0  0  0  0  0
    7.9235    0.7179    3.3656 C   0  0  0  0  0  0
    9.1354    0.0450    3.2232 C   0  0  0  0  0  0
    9.6563   -0.2067    1.9912 C   0  0  0  0  0  0
    5.8259    3.4972    0.0771 C   0  0  0  0  0  0
   -1.2030   -0.6852    0.0103 N   0  0  0  0  0  0
    0.2160    3.8752    0.0200 H   0  0  0  0  0  0
    1.8955    3.9181    0.0046 H   0  0  0  0  0  0
    5.6356   -0.5917   -0.0548 H   0  0  0  0  0  0
    3.5329   -1.8671   -0.0409 H   0  0  0  0  0  0
    7.0768    1.4570   -2.2900 H   0  0  0  0  0  0
    9.2142    0.2689   -2.5218 H   0  0  0  0  0  0
   10.4291   -0.5131   -0.5640 H   0  0  0  0  0  0
    6.2947    1.6751    2.4018 H   0  0  0  0  0  0
    7.5269    0.8964    4.3542 H   0  0  0  0  0  0
    9.6643   -0.2902    4.1031 H   0  0  0  0  0  0
   10.5961   -0.7301    1.8959 H   0  0  0  0  0  0
    5.8769    3.7769    1.1294 H   0  0  0  0  0  0
    6.6827    3.9148   -0.4518 H   0  0  0  0  0  0
    4.9054    3.8863   -0.3581 H   0  0  0  0  0  0
   -2.0385   -0.1925    0.0213 H   0  0  0  0  0  0
   -1.2119   -1.6551    0.0052 H   0  0  0  0  0  0
  1  2  1  0  0  0
  1  6  2  0  0  0
  2  3  2  0  0  0
  2 24  1  0  0  0
  3  4  1  0  0  0
  4  5  2  0  0  0
  4 11  1  0  0  0
  5  6  1  0  0  0
  5  8  1  0  0  0
  6  7  1  0  0  0
  7 25  1  0  0  0
  7 26  1  0  0  0
  8  9  2  0  0  0
  9 10  1  0  0  0
  9 12  1  0  0  0
 10 11  2  0  0  0
 10 27  1  0  0  0
 11 28  1  0  0  0
 12 13  1  0  0  0
 12 23  1  0  0  0
 13 14  1  0  0  0
 13 18  2  0  0  0
 14 15  2  0  0  0
 14 29  1  0  0  0
 15 16  1  0  0  0
 15 30  1  0  0  0
 16 17  2  0  0  0
 16 31  1  0  0  0
 17 18  1  0  0  0
 17 22  1  0  0  0
 18 19  1  0  0  0
 19 20  2  0  0  0
 19 32  1  0  0  0
 20 21  1  0  0  0
 20 33  1  0  0  0
 21 22  2  0  0  0
 21 34  1  0  0  0
 22 35  1  0  0  0
 23 36  1  0  0  0
 23 37  1  0  0  0
 23 38  1  0  0  0
 24 39  1  0  0  0
 24 40  1  0  0  0
M  END
>  <Activity>
5.48149

>  <set_rl>
1

>  <Min_dist>
999.9

>  <Avg_dist>
999.9

>  <PC_uM>
5.1

>  <TG_uM>
2.1

>  <RL_uM>
3.3

$$$$
8-3
 Wcorina  11170919323D 1   1.00000     0.00000              
CORINA evaluation license 3.46 0067  05.08.2008
 33 35  0  0  0  0  0  0  0  0999 V2000
   -0.0160    1.3257    0.0093 N   0  0  0  0  0  0
    0.0021   -0.0041    0.0020 C   0  0  0  0  0  0
    1.1203   -0.7049   -0.0120 N   0  0  0  0  0  0
    2.3106   -0.0881   -0.0200 C   0  0  0  0  0  0
    2.3382    1.3281   -0.0131 C   0  0  0  0  0  0
    1.1072    2.0294    0.0024 C   0  0  0  0  0  0
    1.0784    3.4067    0.0096 N   0  0  0  0  0  0
    3.5719    1.9896   -0.0209 C   0  0  0  0  0  0
    4.7108    1.2282   -0.0349 C   0  0  0  0  0  0
    4.6164   -0.1584   -0.0411 C   0  0  0  0  0  0
    3.4548   -0.7729   -0.0338 N   0  0  0  0  0  0
    6.0633    1.8928   -0.0442 C   0  0  0  0  0  0
    6.6216    2.1514    1.6623 S   0  0  0  0  0  0
    8.1911    2.9246    1.4529 C   0  0  0  0  0  0
    8.9441    3.2843    2.5642 C   0  0  0  0  0  0
   10.1735    3.8901    2.3963 C   0  0  0  0  0  0
   10.6556    4.1393    1.1241 C   0  0  0  0  0  0
    9.9087    3.7831    0.0159 C   0  0  0  0  0  0
    8.6814    3.1709    0.1761 C   0  0  0  0  0  0
   -1.2023   -0.6814    0.0099 N   0  0  0  0  0  0
    0.2285    3.8740    0.0199 H   0  0  0  0  0  0
    1.9081    3.9092    0.0044 H   0  0  0  0  0  0
    3.6243    3.0683   -0.0162 H   0  0  0  0  0  0
    5.5220   -0.7467   -0.0526 H   0  0  0  0  0  0
    6.7771    1.2568   -0.5676 H   0  0  0  0  0  0
    5.9921    2.8543   -0.5528 H   0  0  0  0  0  0
    8.5680    3.0907    3.5579 H   0  0  0  0  0  0
   10.7593    4.1699    3.2594 H   0  0  0  0  0  0
   11.6173    4.6135    0.9958 H   0  0  0  0  0  0
   10.2881    3.9795   -0.9760 H   0  0  0  0  0  0
    8.1009    2.8887   -0.6898 H   0  0  0  0  0  0
   -2.0368   -0.1869    0.0205 H   0  0  0  0  0  0
   -1.2133   -1.6513    0.0048 H   0  0  0  0  0  0
  1  2  1  0  0  0
  1  6  2  0  0  0
  2  3  2  0  0  0
  2 20  1  0  0  0
  3  4  1  0  0  0
  4  5  2  0  0  0
  4 11  1  0  0  0
  5  6  1  0  0  0
  5  8  1  0  0  0
  6  7  1  0  0  0
  7 21  1  0  0  0
  7 22  1  0  0  0
  8  9  2  0  0  0
  8 23  1  0  0  0
  9 10  1  0  0  0
  9 12  1  0  0  0
 10 11  2  0  0  0
 10 24  1  0  0  0
 12 13  1  0  0  0
 12 25  1  0  0  0
 12 26  1  0  0  0
 13 14  1  0  0  0
 14 15  1  0  0  0
 14 19  2  0  0  0
 15 16  2  0  0  0
 15 27  1  0  0  0
 16 17  1  0  0  0
 16 28  1  0  0  0
 17 18  2  0  0  0
 17 29  1  0  0  0
 18 19  1  0  0  0
 18 30  1  0  0  0
 19 31  1  0  0  0
 20 32  1  0  0  0
 20 33  1  0  0  0
M  END
>  <Activity>
5.72125

>  <set_rl>
1

>  <Min_dist>
999.9

>  <Avg_dist>
999.9

>  <PC_uM>
1.3

>  <TG_uM>
0.47

>  <RL_uM>
1.9

$$$$
24-5B
 Wcorina  11170919323D 1   1.00000     0.00000              
CORINA evaluation license 3.46 0067  05.08.2008
 47 50  0  0  0  0  0  0  0  0999 V2000
    0.1451    1.3345   -0.2391 N   0  0  0  0  0  0
    0.1606    0.0048   -0.2565 C   0  0  0  0  0  0
    1.2034   -0.7042    0.1331 N   0  0  0  0  0  0
    2.3148   -0.0963    0.5720 C   0  0  0  0  0  0
    2.3420    1.3195    0.6069 C   0  0  0  0  0  0
    1.1939    2.0298    0.1772 C   0  0  0  0  0  0
    1.1685    3.4071    0.1912 N   0  0  0  0  0  0
    3.4938    1.9718    1.0626 C   0  0  0  0  0  0
    4.5556    1.2020    1.4590 C   0  0  0  0  0  0
    4.4660   -0.1836    1.4005 C   0  0  0  0  0  0
    3.3816   -0.7895    0.9716 N   0  0  0  0  0  0
    5.8183    1.8566    1.9570 C   0  0  0  0  0  0
    5.6398    2.2632    3.3531 N   0  0  0  0  0  0
    6.6820    2.8958    4.0351 C   0  0  0  0  0  0
    7.8801    3.1397    3.3997 C   0  0  0  0  0  0
    8.9262    3.7690    4.0681 C   0  0  0  0  0  0
    8.7948    4.1616    5.3696 C   0  0  0  0  0  0
    7.5848    3.9301    6.0532 C   0  0  0  0  0  0
    6.5136    3.2948    5.3777 C   0  0  0  0  0  0
    5.3066    3.0691    6.0585 C   0  0  0  0  0  0
    5.1790    3.4675    7.3541 C   0  0  0  0  0  0
    6.2303    4.0979    8.0171 C   0  0  0  0  0  0
    7.4185    4.3224    7.3918 C   0  0  0  0  0  0
    9.8295    4.7740    6.0043 O   0  0  0  0  0  0
   11.0259    4.9755    5.2493 C   0  0  0  0  0  0
    3.5638    3.4762    1.1150 C   0  0  0  0  0  0
   -0.9640   -0.6635   -0.7014 N   0  0  0  0  0  0
    1.5508    3.8917    0.9394 H   0  0  0  0  0  0
    0.7683    3.8924   -0.5473 H   0  0  0  0  0  0
    5.3105   -0.7785    1.7157 H   0  0  0  0  0  0
    6.6456    1.1503    1.8873 H   0  0  0  0  0  0
    6.0373    2.7338    1.3482 H   0  0  0  0  0  0
    4.7978    2.0933    3.8038 H   0  0  0  0  0  0
    8.0091    2.8385    2.3706 H   0  0  0  0  0  0
    9.8563    3.9494    3.5496 H   0  0  0  0  0  0
    4.4834    2.5823    5.5568 H   0  0  0  0  0  0
    4.2495    3.2927    7.8756 H   0  0  0  0  0  0
    6.1035    4.4048    9.0447 H   0  0  0  0  0  0
    8.2251    4.8107    7.9185 H   0  0  0  0  0  0
   11.4139    4.0119    4.9193 H   0  0  0  0  0  0
   10.8069    5.5959    4.3802 H   0  0  0  0  0  0
   11.7694    5.4725    5.8724 H   0  0  0  0  0  0
    3.0931    3.8301    2.0322 H   0  0  0  0  0  0
    4.6068    3.7923    1.0967 H   0  0  0  0  0  0
    3.0422    3.8945    0.2542 H   0  0  0  0  0  0
   -1.7422   -0.1630   -0.9924 H   0  0  0  0  0  0
   -0.9752   -1.6332   -0.7228 H   0  0  0  0  0  0
  1  2  1  0  0  0
  1  6  2  0  0  0
  2  3  2  0  0  0
  2 27  1  0  0  0
  3  4  1  0  0  0
  4  5  2  0  0  0
  4 11  1  0  0  0
  5  6  1  0  0  0
  5  8  1  0  0  0
  6  7  1  0  0  0
  7 28  1  0  0  0
  7 29  1  0  0  0
  8  9  2  0  0  0
  8 26  1  0  0  0
  9 10  1  0  0  0
  9 12  1  0  0  0
 10 11  2  0  0  0
 10 30  1  0  0  0
 12 13  1  0  0  0
 12 31  1  0  0  0
 12 32  1  0  0  0
 13 14  1  0  0  0
 13 33  1  0  0  0
 14 15  1  0  0  0
 14 19  2  0  0  0
 15 16  2  0  0  0
 15 34  1  0  0  0
 16 17  1  0  0  0
 16 35  1  0  0  0
 17 18  2  0  0  0
 17 24  1  0  0  0
 18 19  1  0  0  0
 18 23  1  0  0  0
 19 20  1  0  0  0
 20 21  2  0  0  0
 20 36  1  0  0  0
 21 22  1  0  0  0
 21 37  1  0  0  0
 22 23  2  0  0  0
 22 38  1  0  0  0
 23 39  1  0  0  0
 24 25  1  0  0  0
 25 40  1  0  0  0
 25 41  1  0  0  0
 25 42  1  0  0  0
 26 43  1  0  0  0
 26 44  1  0  0  0
 26 45  1  0  0  0
 27 46  1  0  0  0
 27 47  1  0  0  0
M  END
>  <Activity>
7.26761

>  <set_rl>
1

>  <Min_dist>
999.9

>  <Avg_dist>
999.9

>  <PC_uM>
0.041

>  <TG_uM>
0.023

>  <RL_uM>
0.054

$$$$
14-22
 Wcorina  11170919323D 1   1.00000     0.00000              
CORINA evaluation license 3.46 0067  05.08.2008
 40 42  0  0  0  0  0  0  0  0999 V2000
    0.1104    1.3327   -0.2494 N   0  0  0  0  0  0
    0.1273    0.0031   -0.2664 C   0  0  0  0  0  0
    1.1709   -0.7048    0.1231 N   0  0  0  0  0  0
    2.2818   -0.0956    0.5614 C   0  0  0  0  0  0
    2.3076    1.3202    0.5959 C   0  0  0  0  0  0
    1.1587    2.0293    0.1663 C   0  0  0  0  0  0
    1.1319    3.4065    0.1799 N   0  0  0  0  0  0
    3.4588    1.9738    1.0510 C   0  0  0  0  0  0
    4.5216    1.2052    1.4473 C   0  0  0  0  0  0
    4.4334   -0.1805    1.3893 C   0  0  0  0  0  0
    3.3494   -0.7876    0.9609 N   0  0  0  0  0  0
    5.7838    1.8612    1.9448 C   0  0  0  0  0  0
    5.6052    2.2681    3.3408 N   0  0  0  0  0  0
    5.9348    1.3860    4.3732 C   0  0  0  0  0  0
    5.7660    1.7707    5.6974 C   0  0  0  0  0  0
    6.0923    0.8975    6.7163 C   0  0  0  0  0  0
    6.5878   -0.3600    6.4197 C   0  0  0  0  0  0
    6.7574   -0.7466    5.1009 C   0  0  0  0  0  0
    6.4263    0.1215    4.0773 C   0  0  0  0  0  0
    7.3792   -2.3251    4.7327 Cl  0  0  0  0  0  0
    6.9981   -1.4546    7.7032 Cl  0  0  0  0  0  0
    5.0811    3.5997    3.6543 C   0  0  0  0  0  0
    3.5274    3.4783    1.1030 C   0  0  0  0  0  0
   -0.9968   -0.6665   -0.7108 N   0  0  0  0  0  0
    1.5140    3.8917    0.9278 H   0  0  0  0  0  0
    0.7309    3.8911   -0.5586 H   0  0  0  0  0  0
    5.2785   -0.7745    1.7044 H   0  0  0  0  0  0
    6.6117    1.1557    1.8750 H   0  0  0  0  0  0
    6.0017    2.7385    1.3357 H   0  0  0  0  0  0
    5.3800    2.7522    5.9300 H   0  0  0  0  0  0
    5.9611    1.1965    7.7458 H   0  0  0  0  0  0
    6.5544   -0.1816    3.0486 H   0  0  0  0  0  0
    3.9939    3.5564    3.7185 H   0  0  0  0  0  0
    5.4884    3.9351    4.6081 H   0  0  0  0  0  0
    5.3712    4.2984    2.8696 H   0  0  0  0  0  0
    3.0562    3.8321    2.0200 H   0  0  0  0  0  0
    4.5701    3.7954    1.0846 H   0  0  0  0  0  0
    3.0055    3.8958    0.2420 H   0  0  0  0  0  0
   -1.7757   -0.1668   -1.0017 H   0  0  0  0  0  0
   -1.0070   -1.6362   -0.7319 H   0  0  0  0  0  0
  1  2  1  0  0  0
  1  6  2  0  0  0
  2  3  2  0  0  0
  2 24  1  0  0  0
  3  4  1  0  0  0
  4  5  2  0  0  0
  4 11  1  0  0  0
  5  6  1  0  0  0
  5  8  1  0  0  0
  6  7  1  0  0  0
  7 25  1  0  0  0
  7 26  1  0  0  0
  8  9  2  0  0  0
  8 23  1  0  0  0
  9 10  1  0  0  0
  9 12  1  0  0  0
 10 11  2  0  0  0
 10 27  1  0  0  0
 12 13  1  0  0  0
 12 28  1  0  0  0
 12 29  1  0  0  0
 13 14  1  0  0  0
 13 22  1  0  0  0
 14 15  1  0  0  0
 14 19  2  0  0  0
 15 16  2  0  0  0
 15 30  1  0  0  0
 16 17  1  0  0  0
 16 31  1  0  0  0
 17 18  2  0  0  0
 17 21  1  0  0  0
 18 19  1  0  0  0
 18 20  1  0  0  0
 19 32  1  0  0  0
 22 33  1  0  0  0
 22 34  1  0  0  0
 22 35  1  0  0  0
 23 36  1  0  0  0
 23 37  1  0  0  0
 23 38  1  0  0  0
 24 39  1  0  0  0
 24 40  1  0  0  0
M  END
>  <Activity>
7.37675

>  <set_rl>
1

>  <Min_dist>
999.9

>  <Avg_dist>
999.9

>  <PC_uM>
0.1

>  <TG_uM>
0.027

>  <RL_uM>
0.042

$$$$
9-13B
 Wcorina  11170919323D 1   1.00000     0.00000              
CORINA evaluation license 3.46 0067  05.08.2008
 36 38  0  0  0  0  0  0  0  0999 V2000
    0.1548    1.3350   -0.2337 N   0  0  0  0  0  0
    0.1700    0.0053   -0.2513 C   0  0  0  0  0  0
    1.2123   -0.7041    0.1390 N   0  0  0  0  0  0
    2.3235   -0.0966    0.5789 C   0  0  0  0  0  0
    2.3511    1.3192    0.6141 C   0  0  0  0  0  0
    1.2035    2.0299    0.1836 C   0  0  0  0  0  0
    1.1785    3.4072    0.1978 N   0  0  0  0  0  0
    3.5026    1.9711    1.0709 C   0  0  0  0  0  0
    4.5639    1.2009    1.4680 C   0  0  0  0  0  0
    4.4740   -0.1847    1.4092 C   0  0  0  0  0  0
    3.3897   -0.7901    0.9793 N   0  0  0  0  0  0
    5.8264    1.8551    1.9672 C   0  0  0  0  0  0
    5.7164    2.0904    3.7625 S   0  0  0  0  0  0
    7.2548    2.8535    4.1573 C   0  0  0  0  0  0
    7.5457    3.1950    5.4726 C   0  0  0  0  0  0
    8.7522    3.7929    5.7782 C   0  0  0  0  0  0
    9.6705    4.0524    4.7771 C   0  0  0  0  0  0
    9.3843    3.7143    3.4669 C   0  0  0  0  0  0
    8.1825    3.1101    3.1548 C   0  0  0  0  0  0
    3.5731    3.4755    1.1237 C   0  0  0  0  0  0
   -0.9544   -0.6626   -0.6974 N   0  0  0  0  0  0
    1.5600    3.8915    0.9467 H   0  0  0  0  0  0
    0.7795    3.8927   -0.5411 H   0  0  0  0  0  0
    5.3181   -0.7799    1.7250 H   0  0  0  0  0  0
    6.6810    1.2193    1.7358 H   0  0  0  0  0  0
    5.9511    2.8226    1.4809 H   0  0  0  0  0  0
    6.8288    2.9933    6.2548 H   0  0  0  0  0  0
    8.9790    4.0586    6.8002 H   0  0  0  0  0  0
   10.6133    4.5205    5.0190 H   0  0  0  0  0  0
   10.1036    3.9188    2.6877 H   0  0  0  0  0  0
    7.9616    2.8420    2.1322 H   0  0  0  0  0  0
    3.1029    3.8293    2.0413 H   0  0  0  0  0  0
    4.6162    3.7913    1.1048 H   0  0  0  0  0  0
    3.0511    3.8941    0.2632 H   0  0  0  0  0  0
   -1.7323   -0.1618   -0.9889 H   0  0  0  0  0  0
   -0.9658   -1.6323   -0.7189 H   0  0  0  0  0  0
  1  2  1  0  0  0
  1  6  2  0  0  0
  2  3  2  0  0  0
  2 21  1  0  0  0
  3  4  1  0  0  0
  4  5  2  0  0  0
  4 11  1  0  0  0
  5  6  1  0  0  0
  5  8  1  0  0  0
  6  7  1  0  0  0
  7 22  1  0  0  0
  7 23  1  0  0  0
  8  9  2  0  0  0
  8 20  1  0  0  0
  9 10  1  0  0  0
  9 12  1  0  0  0
 10 11  2  0  0  0
 10 24  1  0  0  0
 12 13  1  0  0  0
 12 25  1  0  0  0
 12 26  1  0  0  0
 13 14  1  0  0  0
 14 15  1  0  0  0
 14 19  2  0  0  0
 15 16  2  0  0  0
 15 27  1  0  0  0
 16 17  1  0  0  0
 16 28  1  0  0  0
 17 18  2  0  0  0
 17 29  1  0  0  0
 18 19  1  0  0  0
 18 30  1  0  0  0
 19 31  1  0  0  0
 20 32  1  0  0  0
 20 33  1  0  0  0
 20 34  1  0  0  0
 21 35  1  0  0  0
 21 36  1  0  0  0
M  END
>  <Activity>
6.36653

>  <set_rl>
1

>  <Min_dist>
999.9

>  <Avg_dist>
999.9

>  <PC_uM>
0.44

>  <TG_uM>
0.034

>  <RL_uM>
0.43

$$$$
9-13D
 Wcorina  11170919323D 1   1.00000     0.00000              
CORINA evaluation license 3.46 0067  05.08.2008
 39 41  0  0  0  0  0  0  0  0999 V2000
    0.1548    1.3350   -0.2337 N   0  0  0  0  0  0
    0.1700    0.0053   -0.2513 C   0  0  0  0  0  0
    1.2123   -0.7041    0.1390 N   0  0  0  0  0  0
    2.3235   -0.0966    0.5789 C   0  0  0  0  0  0
    2.3511    1.3192    0.6141 C   0  0  0  0  0  0
    1.2035    2.0299    0.1836 C   0  0  0  0  0  0
    1.1785    3.4072    0.1978 N   0  0  0  0  0  0
    3.5026    1.9711    1.0709 C   0  0  0  0  0  0
    4.5639    1.2009    1.4680 C   0  0  0  0  0  0
    4.4740   -0.1847    1.4092 C   0  0  0  0  0  0
    3.3897   -0.7901    0.9793 N   0  0  0  0  0  0
    5.8264    1.8551    1.9672 C   0  0  0  0  0  0
    5.7164    2.0904    3.7625 S   0  0  0  0  0  0
    7.2548    2.8535    4.1573 C   0  0  0  0  0  0
    8.1803    3.1153    3.1539 C   0  0  0  0  0  0
    9.3847    3.7133    3.4669 C   0  0  0  0  0  0
    9.6710    4.0514    4.7773 C   0  0  0  0  0  0
    8.7528    3.7920    5.7782 C   0  0  0  0  0  0
    7.5433    3.2001    5.4716 C   0  0  0  0  0  0
    9.0696    4.1618    7.2044 C   0  0  0  0  0  0
    3.5731    3.4755    1.1237 C   0  0  0  0  0  0
   -0.9544   -0.6626   -0.6974 N   0  0  0  0  0  0
    1.5600    3.8915    0.9467 H   0  0  0  0  0  0
    0.7795    3.8927   -0.5411 H   0  0  0  0  0  0
    5.3181   -0.7799    1.7250 H   0  0  0  0  0  0
    6.6810    1.2193    1.7358 H   0  0  0  0  0  0
    5.9511    2.8226    1.4809 H   0  0  0  0  0  0
    7.9577    2.8510    2.1306 H   0  0  0  0  0  0
   10.1043    3.9171    2.6877 H   0  0  0  0  0  0
   10.6140    4.5188    5.0193 H   0  0  0  0  0  0
    6.8247    3.0022    6.2531 H   0  0  0  0  0  0
    8.7248    5.1768    7.4017 H   0  0  0  0  0  0
    8.5667    3.4695    7.8795 H   0  0  0  0  0  0
   10.1466    4.1066    7.3633 H   0  0  0  0  0  0
    3.1029    3.8293    2.0413 H   0  0  0  0  0  0
    4.6162    3.7913    1.1048 H   0  0  0  0  0  0
    3.0511    3.8941    0.2632 H   0  0  0  0  0  0
   -1.7323   -0.1618   -0.9889 H   0  0  0  0  0  0
   -0.9658   -1.6323   -0.7189 H   0  0  0  0  0  0
  1  2  1  0  0  0
  1  6  2  0  0  0
  2  3  2  0  0  0
  2 22  1  0  0  0
  3  4  1  0  0  0
  4  5  2  0  0  0
  4 11  1  0  0  0
  5  6  1  0  0  0
  5  8  1  0  0  0
  6  7  1  0  0  0
  7 23  1  0  0  0
  7 24  1  0  0  0
  8  9  2  0  0  0
  8 21  1  0  0  0
  9 10  1  0  0  0
  9 12  1  0  0  0
 10 11  2  0  0  0
 10 25  1  0  0  0
 12 13  1  0  0  0
 12 26  1  0  0  0
 12 27  1  0  0  0
 13 14  1  0  0  0
 14 15  1  0  0  0
 14 19  2  0  0  0
 15 16  2  0  0  0
 15 28  1  0  0  0
 16 17  1  0  0  0
 16 29  1  0  0  0
 17 18  2  0  0  0
 17 30  1  0  0  0
 18 19  1  0  0  0
 18 20  1  0  0  0
 19 31  1  0  0  0
 20 32  1  0  0  0
 20 33  1  0  0  0
 20 34  1  0  0  0
 21 35  1  0  0  0
 21 36  1  0  0  0
 21 37  1  0  0  0
 22 38  1  0  0  0
 22 39  1  0  0  0
M  END
>  <Activity>
6.48149

>  <set_rl>
1

>  <Min_dist>
999.9

>  <Avg_dist>
999.9

>  <PC_uM>
0.17

>  <TG_uM>
0.065

>  <RL_uM>
0.33

$$$$
9-13F
 Wcorina  11170919323D 1   1.00000     0.00000              
CORINA evaluation license 3.46 0067  05.08.2008
 40 42  0  0  0  0  0  0  0  0999 V2000
    0.1548    1.3350   -0.2337 N   0  0  0  0  0  0
    0.1700    0.0053   -0.2513 C   0  0  0  0  0  0
    1.2123   -0.7041    0.1390 N   0  0  0  0  0  0
    2.3235   -0.0966    0.5789 C   0  0  0  0  0  0
    2.3511    1.3192    0.6141 C   0  0  0  0  0  0
    1.2035    2.0299    0.1836 C   0  0  0  0  0  0
    1.1785    3.4072    0.1978 N   0  0  0  0  0  0
    3.5026    1.9711    1.0709 C   0  0  0  0  0  0
    4.5639    1.2009    1.4680 C   0  0  0  0  0  0
    4.4740   -0.1847    1.4092 C   0  0  0  0  0  0
    3.3897   -0.7901    0.9793 N   0  0  0  0  0  0
    5.8264    1.8551    1.9672 C   0  0  0  0  0  0
    5.7164    2.0904    3.7625 S   0  0  0  0  0  0
    7.2548    2.8535    4.1573 C   0  0  0  0  0  0
    8.1801    3.1151    3.1531 C   0  0  0  0  0  0
    9.3854    3.7136    3.4629 C   0  0  0  0  0  0
    9.6755    4.0536    4.7710 C   0  0  0  0  0  0
    8.7558    3.7950    5.7778 C   0  0  0  0  0  0
    7.5424    3.1997    5.4708 C   0  0  0  0  0  0
    9.0430    4.1296    7.0632 O   0  0  0  0  0  0
   10.3099    4.7444    7.3060 C   0  0  0  0  0  0
    3.5731    3.4755    1.1237 C   0  0  0  0  0  0
   -0.9544   -0.6626   -0.6974 N   0  0  0  0  0  0
    1.5600    3.8915    0.9467 H   0  0  0  0  0  0
    0.7795    3.8927   -0.5411 H   0  0  0  0  0  0
    5.3181   -0.7799    1.7250 H   0  0  0  0  0  0
    6.6810    1.2193    1.7358 H   0  0  0  0  0  0
    5.9511    2.8226    1.4809 H   0  0  0  0  0  0
    7.9563    2.8499    2.1304 H   0  0  0  0  0  0
   10.1031    3.9162    2.6817 H   0  0  0  0  0  0
   10.6193    4.5210    5.0100 H   0  0  0  0  0  0
    6.8238    3.0017    6.2524 H   0  0  0  0  0  0
   10.3776    5.6732    6.7395 H   0  0  0  0  0  0
   10.4116    4.9594    8.3697 H   0  0  0  0  0  0
   11.1070    4.0696    6.9939 H   0  0  0  0  0  0
    3.1029    3.8293    2.0413 H   0  0  0  0  0  0
    4.6162    3.7913    1.1048 H   0  0  0  0  0  0
    3.0511    3.8941    0.2632 H   0  0  0  0  0  0
   -1.7323   -0.1618   -0.9889 H   0  0  0  0  0  0
   -0.9658   -1.6323   -0.7189 H   0  0  0  0  0  0
  1  2  1  0  0  0
  1  6  2  0  0  0
  2  3  2  0  0  0
  2 23  1  0  0  0
  3  4  1  0  0  0
  4  5  2  0  0  0
  4 11  1  0  0  0
  5  6  1  0  0  0
  5  8  1  0  0  0
  6  7  1  0  0  0
  7 24  1  0  0  0
  7 25  1  0  0  0
  8  9  2  0  0  0
  8 22  1  0  0  0
  9 10  1  0  0  0
  9 12  1  0  0  0
 10 11  2  0  0  0
 10 26  1  0  0  0
 12 13  1  0  0  0
 12 27  1  0  0  0
 12 28  1  0  0  0
 13 14  1  0  0  0
 14 15  1  0  0  0
 14 19  2  0  0  0
 15 16  2  0  0  0
 15 29  1  0  0  0
 16 17  1  0  0  0
 16 30  1  0  0  0
 17 18  2  0  0  0
 17 31  1  0  0  0
 18 19  1  0  0  0
 18 20  1  0  0  0
 19 32  1  0  0  0
 20 21  1  0  0  0
 21 33  1  0  0  0
 21 34  1  0  0  0
 21 35  1  0  0  0
 22 36  1  0  0  0
 22 37  1  0  0  0
 22 38  1  0  0  0
 23 39  1  0  0  0
 23 40  1  0  0  0
M  END
>  <Activity>
6.22185

>  <set_rl>
1

>  <Min_dist>
999.9

>  <Avg_dist>
999.9

>  <PC_uM>
0.34

>  <TG_uM>
0.11

>  <RL_uM>
0.6

$$$$
9-13G
 Wcorina  11170919323D 1   1.00000     0.00000              
CORINA evaluation license 3.46 0067  05.08.2008
 40 42  0  0  0  0  0  0  0  0999 V2000
    0.1548    1.3350   -0.2337 N   0  0  0  0  0  0
    0.1700    0.0053   -0.2513 C   0  0  0  0  0  0
    1.2123   -0.7041    0.1390 N   0  0  0  0  0  0
    2.3235   -0.0966    0.5789 C   0  0  0  0  0  0
    2.3511    1.3192    0.6141 C   0  0  0  0  0  0
    1.2035    2.0299    0.1836 C   0  0  0  0  0  0
    1.1785    3.4072    0.1978 N   0  0  0  0  0  0
    3.5026    1.9711    1.0709 C   0  0  0  0  0  0
    4.5639    1.2009    1.4680 C   0  0  0  0  0  0
    4.4740   -0.1847    1.4092 C   0  0  0  0  0  0
    3.3897   -0.7901    0.9793 N   0  0  0  0  0  0
    5.8264    1.8551    1.9672 C   0  0  0  0  0  0
    5.7164    2.0904    3.7625 S   0  0  0  0  0  0
    7.2548    2.8535    4.1573 C   0  0  0  0  0  0
    7.5444    3.1944    5.4725 C   0  0  0  0  0  0
    8.7505    3.7920    5.7807 C   0  0  0  0  0  0
    9.6728    4.0519    4.7777 C   0  0  0  0  0  0
    9.3847    3.7119    3.4641 C   0  0  0  0  0  0
    8.1813    3.1094    3.1543 C   0  0  0  0  0  0
   10.8602    4.6408    5.0824 O   0  0  0  0  0  0
   11.7627    4.8791    4.0004 C   0  0  0  0  0  0
    3.5731    3.4755    1.1237 C   0  0  0  0  0  0
   -0.9544   -0.6626   -0.6974 N   0  0  0  0  0  0
    1.5600    3.8915    0.9467 H   0  0  0  0  0  0
    0.7795    3.8927   -0.5411 H   0  0  0  0  0  0
    5.3181   -0.7799    1.7250 H   0  0  0  0  0  0
    6.6810    1.2193    1.7358 H   0  0  0  0  0  0
    5.9511    2.8226    1.4809 H   0  0  0  0  0  0
    6.8263    2.9925    6.2535 H   0  0  0  0  0  0
    8.9757    4.0574    6.8031 H   0  0  0  0  0  0
   10.1033    3.9150    2.6839 H   0  0  0  0  0  0
    7.9589    2.8411    2.1321 H   0  0  0  0  0  0
   11.2891    5.5353    3.2701 H   0  0  0  0  0  0
   12.6684    5.3519    4.3802 H   0  0  0  0  0  0
   12.0188    3.9320    3.5256 H   0  0  0  0  0  0
    3.1029    3.8293    2.0413 H   0  0  0  0  0  0
    4.6162    3.7913    1.1048 H   0  0  0  0  0  0
    3.0511    3.8941    0.2632 H   0  0  0  0  0  0
   -1.7323   -0.1618   -0.9889 H   0  0  0  0  0  0
   -0.9658   -1.6323   -0.7189 H   0  0  0  0  0  0
  1  2  1  0  0  0
  1  6  2  0  0  0
  2  3  2  0  0  0
  2 23  1  0  0  0
  3  4  1  0  0  0
  4  5  2  0  0  0
  4 11  1  0  0  0
  5  6  1  0  0  0
  5  8  1  0  0  0
  6  7  1  0  0  0
  7 24  1  0  0  0
  7 25  1  0  0  0
  8  9  2  0  0  0
  8 22  1  0  0  0
  9 10  1  0  0  0
  9 12  1  0  0  0
 10 11  2  0  0  0
 10 26  1  0  0  0
 12 13  1  0  0  0
 12 27  1  0  0  0
 12 28  1  0  0  0
 13 14  1  0  0  0
 14 15  1  0  0  0
 14 19  2  0  0  0
 15 16  2  0  0  0
 15 29  1  0  0  0
 16 17  1  0  0  0
 16 30  1  0  0  0
 17 18  2  0  0  0
 17 20  1  0  0  0
 18 19  1  0  0  0
 18 31  1  0  0  0
 19 32  1  0  0  0
 20 21  1  0  0  0
 21 33  1  0  0  0
 21 34  1  0  0  0
 21 35  1  0  0  0
 22 36  1  0  0  0
 22 37  1  0  0  0
 22 38  1  0  0  0
 23 39  1  0  0  0
 23 40  1  0  0  0
M  END
>  <Activity>
6.284

>  <set_rl>
1

>  <Min_dist>
999.9

>  <Avg_dist>
999.9

>  <PC_uM>
0.56

>  <TG_uM>
0.063

>  <RL_uM>
0.52

$$$$
9-13H
 Wcorina  11170919323D 1   1.00000     0.00000              
CORINA evaluation license 3.46 0067  05.08.2008
 44 46  0  0  0  0  0  0  0  0999 V2000
    0.1548    1.3350   -0.2337 N   0  0  0  0  0  0
    0.1700    0.0053   -0.2513 C   0  0  0  0  0  0
    1.2123   -0.7041    0.1390 N   0  0  0  0  0  0
    2.3235   -0.0966    0.5789 C   0  0  0  0  0  0
    2.3511    1.3192    0.6141 C   0  0  0  0  0  0
    1.2035    2.0299    0.1836 C   0  0  0  0  0  0
    1.1785    3.4072    0.1978 N   0  0  0  0  0  0
    3.5026    1.9711    1.0709 C   0  0  0  0  0  0
    4.5639    1.2009    1.4680 C   0  0  0  0  0  0
    4.4740   -0.1847    1.4092 C   0  0  0  0  0  0
    3.3897   -0.7901    0.9793 N   0  0  0  0  0  0
    5.8264    1.8551    1.9672 C   0  0  0  0  0  0
    5.7164    2.0904    3.7625 S   0  0  0  0  0  0
    7.2548    2.8535    4.1573 C   0  0  0  0  0  0
    8.1787    3.1145    3.1532 C   0  0  0  0  0  0
    9.3857    3.7125    3.4615 C   0  0  0  0  0  0
    9.6770    4.0534    4.7724 C   0  0  0  0  0  0
    8.7537    3.7938    5.7806 C   0  0  0  0  0  0
    7.5416    3.1993    5.4714 C   0  0  0  0  0  0
    9.0393    4.1279    7.0675 O   0  0  0  0  0  0
    8.0452    3.8321    8.0505 C   0  0  0  0  0  0
   10.8664    4.6418    5.0742 O   0  0  0  0  0  0
   11.7668    4.8783    3.9900 C   0  0  0  0  0  0
    3.5731    3.4755    1.1237 C   0  0  0  0  0  0
   -0.9544   -0.6626   -0.6974 N   0  0  0  0  0  0
    1.5600    3.8915    0.9467 H   0  0  0  0  0  0
    0.7795    3.8927   -0.5411 H   0  0  0  0  0  0
    5.3181   -0.7799    1.7250 H   0  0  0  0  0  0
    6.6810    1.2193    1.7358 H   0  0  0  0  0  0
    5.9511    2.8226    1.4809 H   0  0  0  0  0  0
    7.9535    2.8495    2.1307 H   0  0  0  0  0  0
   10.1031    3.9140    2.6797 H   0  0  0  0  0  0
    6.8219    3.0011    6.2520 H   0  0  0  0  0  0
    7.1247    4.3630    7.8075 H   0  0  0  0  0  0
    7.8535    2.7591    8.0620 H   0  0  0  0  0  0
    8.3989    4.1486    9.0317 H   0  0  0  0  0  0
   11.2923    5.5344    3.2602 H   0  0  0  0  0  0
   12.6738    5.3505    4.3673 H   0  0  0  0  0  0
   12.0209    3.9305    3.5154 H   0  0  0  0  0  0
    3.1029    3.8293    2.0413 H   0  0  0  0  0  0
    4.6162    3.7913    1.1048 H   0  0  0  0  0  0
    3.0511    3.8941    0.2632 H   0  0  0  0  0  0
   -1.7323   -0.1618   -0.9889 H   0  0  0  0  0  0
   -0.9658   -1.6323   -0.7189 H   0  0  0  0  0  0
  1  2  1  0  0  0
  1  6  2  0  0  0
  2  3  2  0  0  0
  2 25  1  0  0  0
  3  4  1  0  0  0
  4  5  2  0  0  0
  4 11  1  0  0  0
  5  6  1  0  0  0
  5  8  1  0  0  0
  6  7  1  0  0  0
  7 26  1  0  0  0
  7 27  1  0  0  0
  8  9  2  0  0  0
  8 24  1  0  0  0
  9 10  1  0  0  0
  9 12  1  0  0  0
 10 11  2  0  0  0
 10 28  1  0  0  0
 12 13  1  0  0  0
 12 29  1  0  0  0
 12 30  1  0  0  0
 13 14  1  0  0  0
 14 15  1  0  0  0
 14 19  2  0  0  0
 15 16  2  0  0  0
 15 31  1  0  0  0
 16 17  1  0  0  0
 16 32  1  0  0  0
 17 18  2  0  0  0
 17 22  1  0  0  0
 18 19  1  0  0  0
 18 20  1  0  0  0
 19 33  1  0  0  0
 20 21  1  0  0  0
 21 34  1  0  0  0
 21 35  1  0  0  0
 21 36  1  0  0  0
 22 23  1  0  0  0
 23 37  1  0  0  0
 23 38  1  0  0  0
 23 39  1  0  0  0
 24 40  1  0  0  0
 24 41  1  0  0  0
 24 42  1  0  0  0
 25 43  1  0  0  0
 25 44  1  0  0  0
M  END
>  <Activity>
6.74473

>  <set_rl>
1

>  <Min_dist>
999.9

>  <Avg_dist>
999.9

>  <PC_uM>
0.15

>  <TG_uM>
0.03

>  <RL_uM>
0.18

$$$$
9-13I
 Wcorina  11170919323D 1   1.00000     0.00000              
CORINA evaluation license 3.46 0067  05.08.2008
 36 38  0  0  0  0  0  0  0  0999 V2000
    0.1548    1.3350   -0.2337 N   0  0  0  0  0  0
    0.1700    0.0053   -0.2513 C   0  0  0  0  0  0
    1.2123   -0.7041    0.1390 N   0  0  0  0  0  0
    2.3235   -0.0966    0.5789 C   0  0  0  0  0  0
    2.3511    1.3192    0.6141 C   0  0  0  0  0  0
    1.2035    2.0299    0.1836 C   0  0  0  0  0  0
    1.1785    3.4072    0.1978 N   0  0  0  0  0  0
    3.5026    1.9711    1.0709 C   0  0  0  0  0  0
    4.5639    1.2009    1.4680 C   0  0  0  0  0  0
    4.4740   -0.1847    1.4092 C   0  0  0  0  0  0
    3.3897   -0.7901    0.9793 N   0  0  0  0  0  0
    5.8264    1.8551    1.9672 C   0  0  0  0  0  0
    5.7164    2.0904    3.7625 S   0  0  0  0  0  0
    7.2548    2.8535    4.1573 C   0  0  0  0  0  0
    7.5456    3.1950    5.4729 C   0  0  0  0  0  0
    8.7518    3.7929    5.7793 C   0  0  0  0  0  0
    9.6708    4.0528    4.7789 C   0  0  0  0  0  0
    9.3852    3.7144    3.4677 C   0  0  0  0  0  0
    8.1821    3.1100    3.1550 C   0  0  0  0  0  0
   10.5420    4.0427    2.2156 Cl  0  0  0  0  0  0
    3.5731    3.4755    1.1237 C   0  0  0  0  0  0
   -0.9544   -0.6626   -0.6974 N   0  0  0  0  0  0
    1.5600    3.8915    0.9467 H   0  0  0  0  0  0
    0.7795    3.8927   -0.5411 H   0  0  0  0  0  0
    5.3181   -0.7799    1.7250 H   0  0  0  0  0  0
    6.6810    1.2193    1.7358 H   0  0  0  0  0  0
    5.9511    2.8226    1.4809 H   0  0  0  0  0  0
    6.8285    2.9932    6.2548 H   0  0  0  0  0  0
    8.9779    4.0583    6.8014 H   0  0  0  0  0  0
   10.6132    4.5213    5.0215 H   0  0  0  0  0  0
    7.9614    2.8416    2.1325 H   0  0  0  0  0  0
    3.1029    3.8293    2.0413 H   0  0  0  0  0  0
    4.6162    3.7913    1.1048 H   0  0  0  0  0  0
    3.0511    3.8941    0.2632 H   0  0  0  0  0  0
   -1.7323   -0.1618   -0.9889 H   0  0  0  0  0  0
   -0.9658   -1.6323   -0.7189 H   0  0  0  0  0  0
  1  2  1  0  0  0
  1  6  2  0  0  0
  2  3  2  0  0  0
  2 22  1  0  0  0
  3  4  1  0  0  0
  4  5  2  0  0  0
  4 11  1  0  0  0
  5  6  1  0  0  0
  5  8  1  0  0  0
  6  7  1  0  0  0
  7 23  1  0  0  0
  7 24  1  0  0  0
  8  9  2  0  0  0
  8 21  1  0  0  0
  9 10  1  0  0  0
  9 12  1  0  0  0
 10 11  2  0  0  0
 10 25  1  0  0  0
 12 13  1  0  0  0
 12 26  1  0  0  0
 12 27  1  0  0  0
 13 14  1  0  0  0
 14 15  1  0  0  0
 14 19  2  0  0  0
 15 16  2  0  0  0
 15 28  1  0  0  0
 16 17  1  0  0  0
 16 29  1  0  0  0
 17 18  2  0  0  0
 17 30  1  0  0  0
 18 19  1  0  0  0
 18 20  1  0  0  0
 19 31  1  0  0  0
 21 32  1  0  0  0
 21 33  1  0  0  0
 21 34  1  0  0  0
 22 35  1  0  0  0
 22 36  1  0  0  0
M  END
>  <Activity>
6.72125

>  <set_rl>
1

>  <Min_dist>
999.9

>  <Avg_dist>
999.9

>  <PC_uM>
0.068

>  <TG_uM>
0.09

>  <RL_uM>
0.19

$$$$
9-13J
 Wcorina  11170919323D 1   1.00000     0.00000              
CORINA evaluation license 3.46 0067  05.08.2008
 36 38  0  0  0  0  0  0  0  0999 V2000
    0.1548    1.3350   -0.2337 N   0  0  0  0  0  0
    0.1700    0.0053   -0.2513 C   0  0  0  0  0  0
    1.2123   -0.7041    0.1390 N   0  0  0  0  0  0
    2.3235   -0.0966    0.5789 C   0  0  0  0  0  0
    2.3511    1.3192    0.6141 C   0  0  0  0  0  0
    1.2035    2.0299    0.1836 C   0  0  0  0  0  0
    1.1785    3.4072    0.1978 N   0  0  0  0  0  0
    3.5026    1.9711    1.0709 C   0  0  0  0  0  0
    4.5639    1.2009    1.4680 C   0  0  0  0  0  0
    4.4740   -0.1847    1.4092 C   0  0  0  0  0  0
    3.3897   -0.7901    0.9793 N   0  0  0  0  0  0
    5.8264    1.8551    1.9672 C   0  0  0  0  0  0
    5.7164    2.0904    3.7625 S   0  0  0  0  0  0
    7.2548    2.8535    4.1573 C   0  0  0  0  0  0
    7.5454    3.1949    5.4725 C   0  0  0  0  0  0
    8.7520    3.7924    5.7788 C   0  0  0  0  0  0
    9.6715    4.0512    4.7774 C   0  0  0  0  0  0
    9.3848    3.7128    3.4665 C   0  0  0  0  0  0
    8.1822    3.1099    3.1547 C   0  0  0  0  0  0
   11.1874    4.8025    5.1664 Cl  0  0  0  0  0  0
    3.5731    3.4755    1.1237 C   0  0  0  0  0  0
   -0.9544   -0.6626   -0.6974 N   0  0  0  0  0  0
    1.5600    3.8915    0.9467 H   0  0  0  0  0  0
    0.7795    3.8927   -0.5411 H   0  0  0  0  0  0
    5.3181   -0.7799    1.7250 H   0  0  0  0  0  0
    6.6810    1.2193    1.7358 H   0  0  0  0  0  0
    5.9511    2.8226    1.4809 H   0  0  0  0  0  0
    6.8281    2.9934    6.2544 H   0  0  0  0  0  0
    8.9783    4.0582    6.8009 H   0  0  0  0  0  0
   10.1040    3.9167    2.6870 H   0  0  0  0  0  0
    7.9610    2.8417    2.1322 H   0  0  0  0  0  0
    3.1029    3.8293    2.0413 H   0  0  0  0  0  0
    4.6162    3.7913    1.1048 H   0  0  0  0  0  0
    3.0511    3.8941    0.2632 H   0  0  0  0  0  0
   -1.7323   -0.1618   -0.9889 H   0  0  0  0  0  0
   -0.9658   -1.6323   -0.7189 H   0  0  0  0  0  0
  1  2  1  0  0  0
  1  6  2  0  0  0
  2  3  2  0  0  0
  2 22  1  0  0  0
  3  4  1  0  0  0
  4  5  2  0  0  0
  4 11  1  0  0  0
  5  6  1  0  0  0
  5  8  1  0  0  0
  6  7  1  0  0  0
  7 23  1  0  0  0
  7 24  1  0  0  0
  8  9  2  0  0  0
  8 21  1  0  0  0
  9 10  1  0  0  0
  9 12  1  0  0  0
 10 11  2  0  0  0
 10 25  1  0  0  0
 12 13  1  0  0  0
 12 26  1  0  0  0
 12 27  1  0  0  0
 13 14  1  0  0  0
 14 15  1  0  0  0
 14 19  2  0  0  0
 15 16  2  0  0  0
 15 28  1  0  0  0
 16 17  1  0  0  0
 16 29  1  0  0  0
 17 18  2  0  0  0
 17 20  1  0  0  0
 18 19  1  0  0  0
 18 30  1  0  0  0
 19 31  1  0  0  0
 21 32  1  0  0  0
 21 33  1  0  0  0
 21 34  1  0  0  0
 22 35  1  0  0  0
 22 36  1  0  0  0
M  END
>  <Activity>
6.4318

>  <set_rl>
1

>  <Min_dist>
999.9

>  <Avg_dist>
999.9

>  <PC_uM>
0.36

>  <TG_uM>
0.09

>  <RL_uM>
0.37

$$$$
9-13L
 Wcorina  11170919323D 1   1.00000     0.00000              
CORINA evaluation license 3.46 0067  05.08.2008
 44 46  0  0  0  0  0  0  0  0999 V2000
    0.1451    1.3345   -0.2391 N   0  0  0  0  0  0
    0.1606    0.0048   -0.2565 C   0  0  0  0  0  0
    1.2034   -0.7042    0.1331 N   0  0  0  0  0  0
    2.3148   -0.0963    0.5720 C   0  0  0  0  0  0
    2.3420    1.3195    0.6069 C   0  0  0  0  0  0
    1.1939    2.0298    0.1772 C   0  0  0  0  0  0
    1.1685    3.4071    0.1911 N   0  0  0  0  0  0
    3.4937    1.9718    1.0626 C   0  0  0  0  0  0
    4.5556    1.2020    1.4590 C   0  0  0  0  0  0
    4.4660   -0.1836    1.4005 C   0  0  0  0  0  0
    3.3816   -0.7895    0.9716 N   0  0  0  0  0  0
    5.8183    1.8566    1.9570 C   0  0  0  0  0  0
    5.6398    2.2632    3.3531 N   0  0  0  0  0  0
    6.6818    2.8956    4.0350 C   0  0  0  0  0  0
    7.8872    3.1394    3.3907 C   0  0  0  0  0  0
    8.9185    3.7675    4.0706 C   0  0  0  0  0  0
    8.7443    4.1514    5.3932 C   0  0  0  0  0  0
    7.5440    3.9081    6.0329 C   0  0  0  0  0  0
    6.5115    3.2868    5.3571 C   0  0  0  0  0  0
    5.2016    3.0287    6.0562 C   0  0  0  0  0  0
   10.0998    4.0071    3.4430 O   0  0  0  0  0  0
   11.1186    4.6583    4.2046 C   0  0  0  0  0  0
    3.5638    3.4762    1.1150 C   0  0  0  0  0  0
   -0.9640   -0.6635   -0.7014 N   0  0  0  0  0  0
    1.5508    3.8917    0.9394 H   0  0  0  0  0  0
    0.7683    3.8924   -0.5473 H   0  0  0  0  0  0
    5.3105   -0.7785    1.7157 H   0  0  0  0  0  0
    6.6456    1.1503    1.8873 H   0  0  0  0  0  0
    6.0373    2.7338    1.3482 H   0  0  0  0  0  0
    4.7978    2.0933    3.8038 H   0  0  0  0  0  0
    8.0210    2.8397    2.3618 H   0  0  0  0  0  0
    9.5483    4.6406    5.9230 H   0  0  0  0  0  0
    7.4114    4.2075    7.0621 H   0  0  0  0  0  0
    5.2342    2.0525    6.5400 H   0  0  0  0  0  0
    5.0320    3.8007    6.8067 H   0  0  0  0  0  0
    4.3912    3.0462    5.3274 H   0  0  0  0  0  0
   11.3671    4.0499    5.0742 H   0  0  0  0  0  0
   12.0069    4.7886    3.5865 H   0  0  0  0  0  0
   10.7589    5.6331    4.5340 H   0  0  0  0  0  0
    3.0931    3.8301    2.0322 H   0  0  0  0  0  0
    4.6068    3.7923    1.0967 H   0  0  0  0  0  0
    3.0422    3.8945    0.2542 H   0  0  0  0  0  0
   -1.7422   -0.1630   -0.9924 H   0  0  0  0  0  0
   -0.9752   -1.6332   -0.7228 H   0  0  0  0  0  0
  1  2  1  0  0  0
  1  6  2  0  0  0
  2  3  2  0  0  0
  2 24  1  0  0  0
  3  4  1  0  0  0
  4  5  2  0  0  0
  4 11  1  0  0  0
  5  6  1  0  0  0
  5  8  1  0  0  0
  6  7  1  0  0  0
  7 25  1  0  0  0
  7 26  1  0  0  0
  8  9  2  0  0  0
  8 23  1  0  0  0
  9 10  1  0  0  0
  9 12  1  0  0  0
 10 11  2  0  0  0
 10 27  1  0  0  0
 12 13  1  0  0  0
 12 28  1  0  0  0
 12 29  1  0  0  0
 13 14  1  0  0  0
 13 30  1  0  0  0
 14 15  1  0  0  0
 14 19  2  0  0  0
 15 16  2  0  0  0
 15 31  1  0  0  0
 16 17  1  0  0  0
 16 21  1  0  0  0
 17 18  2  0  0  0
 17 32  1  0  0  0
 18 19  1  0  0  0
 18 33  1  0  0  0
 19 20  1  0  0  0
 20 34  1  0  0  0
 20 35  1  0  0  0
 20 36  1  0  0  0
 21 22  1  0  0  0
 22 37  1  0  0  0
 22 38  1  0  0  0
 22 39  1  0  0  0
 23 40  1  0  0  0
 23 41  1  0  0  0
 23 42  1  0  0  0
 24 43  1  0  0  0
 24 44  1  0  0  0
M  END
>  <Activity>
6.82391

>  <set_rl>
1

>  <Min_dist>
999.9

>  <Avg_dist>
999.9

>  <PC_uM>
0.038

>  <TG_uM>
0.023

>  <RL_uM>
0.15

$$$$
9-13M
 Wcorina  11170919323D 1   1.00000     0.00000              
CORINA evaluation license 3.46 0067  05.08.2008
 44 46  0  0  0  0  0  0  0  0999 V2000
    0.1475    1.3346   -0.2381 N   0  0  0  0  0  0
    0.1629    0.0049   -0.2556 C   0  0  0  0  0  0
    1.2056   -0.7042    0.1343 N   0  0  0  0  0  0
    2.3169   -0.0964    0.5734 C   0  0  0  0  0  0
    2.3442    1.3194    0.6084 C   0  0  0  0  0  0
    1.1962    2.0299    0.1784 C   0  0  0  0  0  0
    1.1710    3.4072    0.1924 N   0  0  0  0  0  0
    3.4959    1.9716    1.0644 C   0  0  0  0  0  0
    4.5576    1.2018    1.4610 C   0  0  0  0  0  0
    4.4679   -0.1839    1.4025 C   0  0  0  0  0  0
    3.3835   -0.7896    0.9733 N   0  0  0  0  0  0
    5.8202    1.8563    1.9594 C   0  0  0  0  0  0
    5.6408    2.2640    3.3592 N   0  0  0  0  0  0
    6.7972    2.8768    3.8553 C   0  0  0  0  0  0
    7.2878    4.0339    3.2532 C   0  0  0  0  0  0
    8.4320    4.6363    3.7485 C   0  0  0  0  0  0
    9.0857    4.0894    4.8380 C   0  0  0  0  0  0
    8.6001    2.9416    5.4355 C   0  0  0  0  0  0
    7.4547    2.3375    4.9508 C   0  0  0  0  0  0
    6.9246    1.0896    5.6087 C   0  0  0  0  0  0
    6.6446    4.5701    2.1815 O   0  0  0  0  0  0
    7.2046    5.7568    1.6157 C   0  0  0  0  0  0
    3.5660    3.4761    1.1169 C   0  0  0  0  0  0
   -0.9616   -0.6633   -0.7009 N   0  0  0  0  0  0
    1.5530    3.8917    0.9409 H   0  0  0  0  0  0
    0.7711    3.8924   -0.5462 H   0  0  0  0  0  0
    5.3123   -0.7789    1.7178 H   0  0  0  0  0  0
    6.6474    1.1499    1.8898 H   0  0  0  0  0  0
    6.0394    2.7335    1.3507 H   0  0  0  0  0  0
    4.8395    2.8688    3.4598 H   0  0  0  0  0  0
    8.8143    5.5331    3.2838 H   0  0  0  0  0  0
    9.9782    4.5605    5.2227 H   0  0  0  0  0  0
    9.1142    2.5178    6.2855 H   0  0  0  0  0  0
    7.3716    0.2134    5.1391 H   0  0  0  0  0  0
    7.1774    1.1023    6.6689 H   0  0  0  0  0  0
    5.8414    1.0504    5.4939 H   0  0  0  0  0  0
    8.2201    5.5532    1.2761 H   0  0  0  0  0  0
    6.5963    6.0783    0.7703 H   0  0  0  0  0  0
    7.2245    6.5441    2.3693 H   0  0  0  0  0  0
    3.0955    3.8299    2.0342 H   0  0  0  0  0  0
    4.6091    3.7920    1.0984 H   0  0  0  0  0  0
    3.0443    3.8944    0.2562 H   0  0  0  0  0  0
   -1.7398   -0.1627   -0.9920 H   0  0  0  0  0  0
   -0.9728   -1.6330   -0.7223 H   0  0  0  0  0  0
  1  2  1  0  0  0
  1  6  2  0  0  0
  2  3  2  0  0  0
  2 24  1  0  0  0
  3  4  1  0  0  0
  4  5  2  0  0  0
  4 11  1  0  0  0
  5  6  1  0  0  0
  5  8  1  0  0  0
  6  7  1  0  0  0
  7 25  1  0  0  0
  7 26  1  0  0  0
  8  9  2  0  0  0
  8 23  1  0  0  0
  9 10  1  0  0  0
  9 12  1  0  0  0
 10 11  2  0  0  0
 10 27  1  0  0  0
 12 13  1  0  0  0
 12 28  1  0  0  0
 12 29  1  0  0  0
 13 14  1  0  0  0
 13 30  1  0  0  0
 14 15  1  0  0  0
 14 19  2  0  0  0
 15 16  2  0  0  0
 15 21  1  0  0  0
 16 17  1  0  0  0
 16 31  1  0  0  0
 17 18  2  0  0  0
 17 32  1  0  0  0
 18 19  1  0  0  0
 18 33  1  0  0  0
 19 20  1  0  0  0
 20 34  1  0  0  0
 20 35  1  0  0  0
 20 36  1  0  0  0
 21 22  1  0  0  0
 22 37  1  0  0  0
 22 38  1  0  0  0
 22 39  1  0  0  0
 23 40  1  0  0  0
 23 41  1  0  0  0
 23 42  1  0  0  0
 24 43  1  0  0  0
 24 44  1  0  0  0
M  END
>  <Activity>
6.49485

>  <set_rl>
1

>  <Min_dist>
999.9

>  <Avg_dist>
999.9

>  <PC_uM>
1

>  <TG_uM>
0.1

>  <RL_uM>
0.32

$$$$
9-13R
 Wcorina  11170919323D 1   1.00000     0.00000              
CORINA evaluation license 3.46 0067  05.08.2008
 44 46  0  0  0  0  0  0  0  0999 V2000
    0.1451    1.3345   -0.2391 N   0  0  0  0  0  0
    0.1606    0.0048   -0.2565 C   0  0  0  0  0  0
    1.2034   -0.7042    0.1331 N   0  0  0  0  0  0
    2.3148   -0.0963    0.5720 C   0  0  0  0  0  0
    2.3420    1.3195    0.6069 C   0  0  0  0  0  0
    1.1939    2.0298    0.1772 C   0  0  0  0  0  0
    1.1685    3.4071    0.1912 N   0  0  0  0  0  0
    3.4938    1.9718    1.0626 C   0  0  0  0  0  0
    4.5556    1.2020    1.4590 C   0  0  0  0  0  0
    4.4660   -0.1836    1.4005 C   0  0  0  0  0  0
    3.3816   -0.7895    0.9716 N   0  0  0  0  0  0
    5.8183    1.8566    1.9570 C   0  0  0  0  0  0
    5.6398    2.2632    3.3531 N   0  0  0  0  0  0
    6.6840    2.8970    4.0364 C   0  0  0  0  0  0
    7.8889    3.1410    3.3936 C   0  0  0  0  0  0
    8.9186    3.7669    4.0706 C   0  0  0  0  0  0
    8.7512    4.1511    5.3881 C   0  0  0  0  0  0
    7.5530    3.9111    6.0354 C   0  0  0  0  0  0
    6.5142    3.2896    5.3623 C   0  0  0  0  0  0
    5.3332    3.0580    5.9960 O   0  0  0  0  0  0
    5.2310    3.4878    7.3550 C   0  0  0  0  0  0
   10.2270    4.0309    3.3711 C   0  0  0  0  0  0
   10.1815    5.2860    2.7548 F   0  0  0  0  0  0
   11.2682    4.0075    4.3052 F   0  0  0  0  0  0
   10.4461    3.0441    2.4039 F   0  0  0  0  0  0
    3.5638    3.4762    1.1150 C   0  0  0  0  0  0
   -0.9640   -0.6635   -0.7014 N   0  0  0  0  0  0
    1.5508    3.8917    0.9394 H   0  0  0  0  0  0
    0.7683    3.8924   -0.5473 H   0  0  0  0  0  0
    5.3105   -0.7785    1.7157 H   0  0  0  0  0  0
    6.6456    1.1503    1.8873 H   0  0  0  0  0  0
    6.0373    2.7338    1.3482 H   0  0  0  0  0  0
    4.7978    2.0933    3.8038 H   0  0  0  0  0  0
    8.0224    2.8416    2.3645 H   0  0  0  0  0  0
    9.5586    4.6396    5.9134 H   0  0  0  0  0  0
    7.4256    4.2125    7.0646 H   0  0  0  0  0  0
    5.3853    4.5655    7.4078 H   0  0  0  0  0  0
    4.2410    3.2432    7.7399 H   0  0  0  0  0  0
    5.9887    2.9824    7.9538 H   0  0  0  0  0  0
    3.0931    3.8301    2.0322 H   0  0  0  0  0  0
    4.6068    3.7923    1.0967 H   0  0  0  0  0  0
    3.0422    3.8945    0.2542 H   0  0  0  0  0  0
   -1.7422   -0.1630   -0.9924 H   0  0  0  0  0  0
   -0.9752   -1.6332   -0.7228 H   0  0  0  0  0  0
  1  2  1  0  0  0
  1  6  2  0  0  0
  2  3  2  0  0  0
  2 27  1  0  0  0
  3  4  1  0  0  0
  4  5  2  0  0  0
  4 11  1  0  0  0
  5  6  1  0  0  0
  5  8  1  0  0  0
  6  7  1  0  0  0
  7 28  1  0  0  0
  7 29  1  0  0  0
  8  9  2  0  0  0
  8 26  1  0  0  0
  9 10  1  0  0  0
  9 12  1  0  0  0
 10 11  2  0  0  0
 10 30  1  0  0  0
 12 13  1  0  0  0
 12 31  1  0  0  0
 12 32  1  0  0  0
 13 14  1  0  0  0
 13 33  1  0  0  0
 14 15  1  0  0  0
 14 19  2  0  0  0
 15 16  2  0  0  0
 15 34  1  0  0  0
 16 17  1  0  0  0
 16 22  1  0  0  0
 17 18  2  0  0  0
 17 35  1  0  0  0
 18 19  1  0  0  0
 18 36  1  0  0  0
 19 20  1  0  0  0
 20 21  1  0  0  0
 21 37  1  0  0  0
 21 38  1  0  0  0
 21 39  1  0  0  0
 22 23  1  0  0  0
 22 24  1  0  0  0
 22 25  1  0  0  0
 26 40  1  0  0  0
 26 41  1  0  0  0
 26 42  1  0  0  0
 27 43  1  0  0  0
 27 44  1  0  0  0
M  END
>  <Activity>
7.69897

>  <set_rl>
1

>  <Min_dist>
999.9

>  <Avg_dist>
999.9

>  <PC_uM>
0.044

>  <TG_uM>
0.022

>  <RL_uM>
0.02

$$$$
9-13U
 Wcorina  11170919323D 1   1.00000     0.00000              
CORINA evaluation license 3.46 0067  05.08.2008
 46 48  0  0  0  0  0  0  0  0999 V2000
    0.1493    1.3347   -0.2370 N   0  0  0  0  0  0
    0.1647    0.0050   -0.2545 C   0  0  0  0  0  0
    1.2072   -0.7041    0.1354 N   0  0  0  0  0  0
    2.3185   -0.0964    0.5747 C   0  0  0  0  0  0
    2.3459    1.3194    0.6098 C   0  0  0  0  0  0
    1.1980    2.0299    0.1797 C   0  0  0  0  0  0
    1.1728    3.4072    0.1938 N   0  0  0  0  0  0
    3.4975    1.9715    1.0659 C   0  0  0  0  0  0
    4.5591    1.2016    1.4627 C   0  0  0  0  0  0
    4.4694   -0.1841    1.4041 C   0  0  0  0  0  0
    3.3850   -0.7897    0.9747 N   0  0  0  0  0  0
    5.8218    1.8560    1.9612 C   0  0  0  0  0  0
    5.6801    2.1679    3.4524 C   0  0  0  0  0  0
    6.9427    2.8223    3.9509 C   0  0  0  0  0  0
    7.9301    2.0578    4.5419 C   0  0  0  0  0  0
    9.0922    2.6599    5.0002 C   0  0  0  0  0  0
    9.2632    4.0299    4.8653 C   0  0  0  0  0  0
    8.2762    4.7942    4.2746 C   0  0  0  0  0  0
    7.1160    4.1911    3.8113 C   0  0  0  0  0  0
    6.1465    4.9428    3.2246 O   0  0  0  0  0  0
    6.3918    6.3463    3.1139 C   0  0  0  0  0  0
   10.0638    1.9074    5.5822 O   0  0  0  0  0  0
   11.2342    2.5935    6.0312 C   0  0  0  0  0  0
    3.5678    3.4759    1.1186 C   0  0  0  0  0  0
   -0.9598   -0.6631   -0.7000 N   0  0  0  0  0  0
    1.5547    3.8916    0.9423 H   0  0  0  0  0  0
    0.7731    3.8925   -0.5449 H   0  0  0  0  0  0
    5.3137   -0.7791    1.7195 H   0  0  0  0  0  0
    6.6647    1.1818    1.8096 H   0  0  0  0  0  0
    5.9931    2.7813    1.4112 H   0  0  0  0  0  0
    4.8371    2.8421    3.6040 H   0  0  0  0  0  0
    5.5088    1.2426    4.0025 H   0  0  0  0  0  0
    7.7967    0.9912    4.6472 H   0  0  0  0  0  0
   10.1681    4.4988    5.2226 H   0  0  0  0  0  0
    8.4092    5.8608    4.1699 H   0  0  0  0  0  0
    6.5297    6.7706    4.1084 H   0  0  0  0  0  0
    7.2907    6.5123    2.5202 H   0  0  0  0  0  0
    5.5420    6.8264    2.6287 H   0  0  0  0  0  0
   11.7130    3.0869    5.1854 H   0  0  0  0  0  0
   10.9552    3.3387    6.7761 H   0  0  0  0  0  0
   11.9271    1.8784    6.4745 H   0  0  0  0  0  0
    3.0973    3.8298    2.0359 H   0  0  0  0  0  0
    4.6108    3.7918    1.1000 H   0  0  0  0  0  0
    3.0460    3.8943    0.2579 H   0  0  0  0  0  0
   -1.7379   -0.1625   -0.9912 H   0  0  0  0  0  0
   -0.9711   -1.6328   -0.7214 H   0  0  0  0  0  0
  1  2  1  0  0  0
  1  6  2  0  0  0
  2  3  2  0  0  0
  2 25  1  0  0  0
  3  4  1  0  0  0
  4  5  2  0  0  0
  4 11  1  0  0  0
  5  6  1  0  0  0
  5  8  1  0  0  0
  6  7  1  0  0  0
  7 26  1  0  0  0
  7 27  1  0  0  0
  8  9  2  0  0  0
  8 24  1  0  0  0
  9 10  1  0  0  0
  9 12  1  0  0  0
 10 11  2  0  0  0
 10 28  1  0  0  0
 12 13  1  0  0  0
 12 29  1  0  0  0
 12 30  1  0  0  0
 13 14  1  0  0  0
 13 31  1  0  0  0
 13 32  1  0  0  0
 14 15  1  0  0  0
 14 19  2  0  0  0
 15 16  2  0  0  0
 15 33  1  0  0  0
 16 17  1  0  0  0
 16 22  1  0  0  0
 17 18  2  0  0  0
 17 34  1  0  0  0
 18 19  1  0  0  0
 18 35  1  0  0  0
 19 20  1  0  0  0
 20 21  1  0  0  0
 21 36  1  0  0  0
 21 37  1  0  0  0
 21 38  1  0  0  0
 22 23  1  0  0  0
 23 39  1  0  0  0
 23 40  1  0  0  0
 23 41  1  0  0  0
 24 42  1  0  0  0
 24 43  1  0  0  0
 24 44  1  0  0  0
 25 45  1  0  0  0
 25 46  1  0  0  0
M  END
>  <Activity>
6.11351

>  <set_rl>
1

>  <Min_dist>
999.9

>  <Avg_dist>
999.9

>  <PC_uM>
0.34

>  <TG_uM>
0.0079

>  <RL_uM>
0.77

$$$$
9-14A
 Wcorina  11170919323D 1   1.00000     0.00000              
CORINA evaluation license 3.46 0067  05.08.2008
 43 45  0  0  0  0  0  0  0  0999 V2000
    0.1451    1.3345   -0.2391 N   0  0  0  0  0  0
    0.1606    0.0048   -0.2565 C   0  0  0  0  0  0
    1.2034   -0.7042    0.1331 N   0  0  0  0  0  0
    2.3148   -0.0963    0.5720 C   0  0  0  0  0  0
    2.3420    1.3195    0.6069 C   0  0  0  0  0  0
    1.1939    2.0298    0.1772 C   0  0  0  0  0  0
    1.1685    3.4071    0.1911 N   0  0  0  0  0  0
    3.4937    1.9718    1.0626 C   0  0  0  0  0  0
    4.5556    1.2020    1.4590 C   0  0  0  0  0  0
    4.4660   -0.1836    1.4005 C   0  0  0  0  0  0
    3.3816   -0.7895    0.9716 N   0  0  0  0  0  0
    5.8183    1.8566    1.9570 C   0  0  0  0  0  0
    5.6398    2.2632    3.3531 N   0  0  0  0  0  0
    6.6818    2.8957    4.0350 C   0  0  0  0  0  0
    7.8883    3.1399    3.3909 C   0  0  0  0  0  0
    8.9163    3.7657    4.0679 C   0  0  0  0  0  0
    8.7460    4.1490    5.3858 C   0  0  0  0  0  0
    7.5466    3.9075    6.0298 C   0  0  0  0  0  0
    6.5122    3.2870    5.3568 C   0  0  0  0  0  0
    5.2031    3.0298    6.0576 C   0  0  0  0  0  0
   10.2254    4.0310    3.3700 C   0  0  0  0  0  0
    3.5638    3.4762    1.1150 C   0  0  0  0  0  0
   -0.9640   -0.6635   -0.7014 N   0  0  0  0  0  0
    1.5508    3.8917    0.9394 H   0  0  0  0  0  0
    0.7683    3.8924   -0.5473 H   0  0  0  0  0  0
    5.3105   -0.7785    1.7157 H   0  0  0  0  0  0
    6.6456    1.1503    1.8873 H   0  0  0  0  0  0
    6.0373    2.7338    1.3482 H   0  0  0  0  0  0
    4.7978    2.0933    3.8038 H   0  0  0  0  0  0
    8.0222    2.8402    2.3620 H   0  0  0  0  0  0
    9.5519    4.6377    5.9132 H   0  0  0  0  0  0
    7.4169    4.2080    7.0590 H   0  0  0  0  0  0
    5.2359    2.0538    6.5419 H   0  0  0  0  0  0
    5.0348    3.8022    6.8080 H   0  0  0  0  0  0
    4.3918    3.0472    5.3299 H   0  0  0  0  0  0
   10.1896    5.0091    2.8902 H   0  0  0  0  0  0
   11.0357    4.0132    4.0988 H   0  0  0  0  0  0
   10.3976    3.2626    2.6163 H   0  0  0  0  0  0
    3.0931    3.8301    2.0322 H   0  0  0  0  0  0
    4.6068    3.7923    1.0967 H   0  0  0  0  0  0
    3.0422    3.8945    0.2542 H   0  0  0  0  0  0
   -1.7422   -0.1630   -0.9924 H   0  0  0  0  0  0
   -0.9752   -1.6332   -0.7228 H   0  0  0  0  0  0
  1  2  1  0  0  0
  1  6  2  0  0  0
  2  3  2  0  0  0
  2 23  1  0  0  0
  3  4  1  0  0  0
  4  5  2  0  0  0
  4 11  1  0  0  0
  5  6  1  0  0  0
  5  8  1  0  0  0
  6  7  1  0  0  0
  7 24  1  0  0  0
  7 25  1  0  0  0
  8  9  2  0  0  0
  8 22  1  0  0  0
  9 10  1  0  0  0
  9 12  1  0  0  0
 10 11  2  0  0  0
 10 26  1  0  0  0
 12 13  1  0  0  0
 12 27  1  0  0  0
 12 28  1  0  0  0
 13 14  1  0  0  0
 13 29  1  0  0  0
 14 15  1  0  0  0
 14 19  2  0  0  0
 15 16  2  0  0  0
 15 30  1  0  0  0
 16 17  1  0  0  0
 16 21  1  0  0  0
 17 18  2  0  0  0
 17 31  1  0  0  0
 18 19  1  0  0  0
 18 32  1  0  0  0
 19 20  1  0  0  0
 20 33  1  0  0  0
 20 34  1  0  0  0
 20 35  1  0  0  0
 21 36  1  0  0  0
 21 37  1  0  0  0
 21 38  1  0  0  0
 22 39  1  0  0  0
 22 40  1  0  0  0
 22 41  1  0  0  0
 23 42  1  0  0  0
 23 43  1  0  0  0
M  END
>  <Activity>
6.92082

>  <set_rl>
1

>  <Min_dist>
999.9

>  <Avg_dist>
999.9

>  <PC_uM>
0.03

>  <TG_uM>
0.016

>  <RL_uM>
0.12

$$$$
9-14B
 Wcorina  11170919323D 1   1.00000     0.00000              
CORINA evaluation license 3.46 0067  05.08.2008
 44 46  0  0  0  0  0  0  0  0999 V2000
    0.1451    1.3345   -0.2391 N   0  0  0  0  0  0
    0.1606    0.0048   -0.2565 C   0  0  0  0  0  0
    1.2034   -0.7042    0.1331 N   0  0  0  0  0  0
    2.3148   -0.0963    0.5720 C   0  0  0  0  0  0
    2.3420    1.3195    0.6069 C   0  0  0  0  0  0
    1.1939    2.0298    0.1772 C   0  0  0  0  0  0
    1.1685    3.4071    0.1911 N   0  0  0  0  0  0
    3.4937    1.9718    1.0626 C   0  0  0  0  0  0
    4.5556    1.2020    1.4590 C   0  0  0  0  0  0
    4.4660   -0.1836    1.4005 C   0  0  0  0  0  0
    3.3816   -0.7895    0.9716 N   0  0  0  0  0  0
    5.8183    1.8566    1.9570 C   0  0  0  0  0  0
    5.6398    2.2632    3.3530 N   0  0  0  0  0  0
    6.6838    2.8969    4.0363 C   0  0  0  0  0  0
    7.8894    3.1404    3.3913 C   0  0  0  0  0  0
    8.9191    3.7656    4.0663 C   0  0  0  0  0  0
    8.7496    4.1505    5.3882 C   0  0  0  0  0  0
    7.5462    3.9073    6.0332 C   0  0  0  0  0  0
    6.5130    3.2875    5.3576 C   0  0  0  0  0  0
    5.2031    3.0294    6.0566 C   0  0  0  0  0  0
    9.7643    4.7662    6.0522 O   0  0  0  0  0  0
   10.9759    4.9847    5.3268 C   0  0  0  0  0  0
    3.5638    3.4762    1.1150 C   0  0  0  0  0  0
   -0.9640   -0.6635   -0.7014 N   0  0  0  0  0  0
    1.5508    3.8917    0.9394 H   0  0  0  0  0  0
    0.7683    3.8924   -0.5473 H   0  0  0  0  0  0
    5.3105   -0.7785    1.7157 H   0  0  0  0  0  0
    6.6456    1.1503    1.8873 H   0  0  0  0  0  0
    6.0373    2.7338    1.3482 H   0  0  0  0  0  0
    4.7978    2.0933    3.8038 H   0  0  0  0  0  0
    8.0217    2.8405    2.3622 H   0  0  0  0  0  0
    9.8568    3.9548    3.5649 H   0  0  0  0  0  0
    7.4154    4.2066    7.0626 H   0  0  0  0  0  0
    5.2357    2.0531    6.5404 H   0  0  0  0  0  0
    5.0335    3.8013    6.8072 H   0  0  0  0  0  0
    4.3928    3.0469    5.3279 H   0  0  0  0  0  0
   10.7716    5.6110    4.4585 H   0  0  0  0  0  0
   11.7005    5.4824    5.9713 H   0  0  0  0  0  0
   11.3799    4.0274    4.9975 H   0  0  0  0  0  0
    3.0931    3.8301    2.0322 H   0  0  0  0  0  0
    4.6068    3.7923    1.0967 H   0  0  0  0  0  0
    3.0422    3.8945    0.2542 H   0  0  0  0  0  0
   -1.7422   -0.1630   -0.9924 H   0  0  0  0  0  0
   -0.9752   -1.6332   -0.7228 H   0  0  0  0  0  0
  1  2  1  0  0  0
  1  6  2  0  0  0
  2  3  2  0  0  0
  2 24  1  0  0  0
  3  4  1  0  0  0
  4  5  2  0  0  0
  4 11  1  0  0  0
  5  6  1  0  0  0
  5  8  1  0  0  0
  6  7  1  0  0  0
  7 25  1  0  0  0
  7 26  1  0  0  0
  8  9  2  0  0  0
  8 23  1  0  0  0
  9 10  1  0  0  0
  9 12  1  0  0  0
 10 11  2  0  0  0
 10 27  1  0  0  0
 12 13  1  0  0  0
 12 28  1  0  0  0
 12 29  1  0  0  0
 13 14  1  0  0  0
 13 30  1  0  0  0
 14 15  1  0  0  0
 14 19  2  0  0  0
 15 16  2  0  0  0
 15 31  1  0  0  0
 16 17  1  0  0  0
 16 32  1  0  0  0
 17 18  2  0  0  0
 17 21  1  0  0  0
 18 19  1  0  0  0
 18 33  1  0  0  0
 19 20  1  0  0  0
 20 34  1  0  0  0
 20 35  1  0  0  0
 20 36  1  0  0  0
 21 22  1  0  0  0
 22 37  1  0  0  0
 22 38  1  0  0  0
 22 39  1  0  0  0
 23 40  1  0  0  0
 23 41  1  0  0  0
 23 42  1  0  0  0
 24 43  1  0  0  0
 24 44  1  0  0  0
M  END
>  <Activity>
7.5376

>  <set_rl>
1

>  <Min_dist>
999.9

>  <Avg_dist>
999.9

>  <PC_uM>
0.17

>  <TG_uM>
0.0072

>  <RL_uM>
0.029

$$$$
9-14C
 Wcorina  11170919323D 1   1.00000     0.00000              
CORINA evaluation license 3.46 0067  05.08.2008
 44 46  0  0  0  0  0  0  0  0999 V2000
    0.1451    1.3345   -0.2391 N   0  0  0  0  0  0
    0.1606    0.0048   -0.2565 C   0  0  0  0  0  0
    1.2034   -0.7042    0.1331 N   0  0  0  0  0  0
    2.3148   -0.0963    0.5720 C   0  0  0  0  0  0
    2.3420    1.3195    0.6069 C   0  0  0  0  0  0
    1.1939    2.0298    0.1772 C   0  0  0  0  0  0
    1.1685    3.4071    0.1912 N   0  0  0  0  0  0
    3.4938    1.9718    1.0626 C   0  0  0  0  0  0
    4.5556    1.2020    1.4590 C   0  0  0  0  0  0
    4.4660   -0.1836    1.4005 C   0  0  0  0  0  0
    3.3816   -0.7895    0.9716 N   0  0  0  0  0  0
    5.8183    1.8566    1.9570 C   0  0  0  0  0  0
    5.6398    2.2632    3.3531 N   0  0  0  0  0  0
    6.6840    2.8970    4.0364 C   0  0  0  0  0  0
    7.8889    3.1410    3.3936 C   0  0  0  0  0  0
    8.9186    3.7669    4.0706 C   0  0  0  0  0  0
    8.7512    4.1511    5.3881 C   0  0  0  0  0  0
    7.5530    3.9111    6.0354 C   0  0  0  0  0  0
    6.5142    3.2896    5.3623 C   0  0  0  0  0  0
    5.3332    3.0580    5.9960 O   0  0  0  0  0  0
    5.2310    3.4878    7.3550 C   0  0  0  0  0  0
   10.2270    4.0309    3.3711 C   0  0  0  0  0  0
    3.5638    3.4762    1.1150 C   0  0  0  0  0  0
   -0.9640   -0.6635   -0.7014 N   0  0  0  0  0  0
    1.5508    3.8917    0.9394 H   0  0  0  0  0  0
    0.7683    3.8924   -0.5473 H   0  0  0  0  0  0
    5.3105   -0.7785    1.7157 H   0  0  0  0  0  0
    6.6456    1.1503    1.8873 H   0  0  0  0  0  0
    6.0373    2.7338    1.3482 H   0  0  0  0  0  0
    4.7978    2.0933    3.8038 H   0  0  0  0  0  0
    8.0224    2.8416    2.3645 H   0  0  0  0  0  0
    9.5586    4.6396    5.9134 H   0  0  0  0  0  0
    7.4256    4.2125    7.0646 H   0  0  0  0  0  0
    5.9887    2.9824    7.9538 H   0  0  0  0  0  0
    5.3853    4.5655    7.4078 H   0  0  0  0  0  0
    4.2410    3.2432    7.7399 H   0  0  0  0  0  0
   10.1916    5.0087    2.8909 H   0  0  0  0  0  0
   11.0383    4.0127    4.0989 H   0  0  0  0  0  0
   10.3977    3.2620    2.6175 H   0  0  0  0  0  0
    3.0931    3.8301    2.0322 H   0  0  0  0  0  0
    4.6068    3.7923    1.0967 H   0  0  0  0  0  0
    3.0422    3.8945    0.2542 H   0  0  0  0  0  0
   -1.7422   -0.1630   -0.9924 H   0  0  0  0  0  0
   -0.9752   -1.6332   -0.7228 H   0  0  0  0  0  0
  1  2  1  0  0  0
  1  6  2  0  0  0
  2  3  2  0  0  0
  2 24  1  0  0  0
  3  4  1  0  0  0
  4  5  2  0  0  0
  4 11  1  0  0  0
  5  6  1  0  0  0
  5  8  1  0  0  0
  6  7  1  0  0  0
  7 25  1  0  0  0
  7 26  1  0  0  0
  8  9  2  0  0  0
  8 23  1  0  0  0
  9 10  1  0  0  0
  9 12  1  0  0  0
 10 11  2  0  0  0
 10 27  1  0  0  0
 12 13  1  0  0  0
 12 28  1  0  0  0
 12 29  1  0  0  0
 13 14  1  0  0  0
 13 30  1  0  0  0
 14 15  1  0  0  0
 14 19  2  0  0  0
 15 16  2  0  0  0
 15 31  1  0  0  0
 16 17  1  0  0  0
 16 22  1  0  0  0
 17 18  2  0  0  0
 17 32  1  0  0  0
 18 19  1  0  0  0
 18 33  1  0  0  0
 19 20  1  0  0  0
 20 21  1  0  0  0
 21 34  1  0  0  0
 21 35  1  0  0  0
 21 36  1  0  0  0
 22 37  1  0  0  0
 22 38  1  0  0  0
 22 39  1  0  0  0
 23 40  1  0  0  0
 23 41  1  0  0  0
 23 42  1  0  0  0
 24 43  1  0  0  0
 24 44  1  0  0  0
M  END
>  <Activity>
6.79588

>  <set_rl>
1

>  <Min_dist>
999.9

>  <Avg_dist>
999.9

>  <PC_uM>
0.068

>  <TG_uM>
0.015

>  <RL_uM>
0.16

$$$$
9-14K
 Wcorina  11170919323D 1   1.00000     0.00000              
CORINA evaluation license 3.46 0067  05.08.2008
 47 49  0  0  0  0  0  0  0  0999 V2000
    2.6299   -2.8875    1.2128 N   0  0  0  0  0  0
    1.5022   -2.2819    0.8520 C   0  0  0  0  0  0
    1.4795   -1.2121    0.0794 N   0  0  0  0  0  0
    2.6206   -0.6813   -0.3826 C   0  0  0  0  0  0
    3.8458   -1.2943   -0.0225 C   0  0  0  0  0  0
    3.8107   -2.4409    0.8091 C   0  0  0  0  0  0
    4.9735   -3.0747    1.1886 N   0  0  0  0  0  0
    5.0474   -0.7543   -0.4957 C   0  0  0  0  0  0
    4.9836    0.3562   -1.2956 C   0  0  0  0  0  0
    3.7493    0.9107   -1.6128 C   0  0  0  0  0  0
    2.6250    0.3986   -1.1649 N   0  0  0  0  0  0
    6.2493    0.9755   -1.8301 C   0  0  0  0  0  0
    6.9056    1.7450   -0.7648 N   0  0  0  0  0  0
    8.2341    2.0321   -1.0991 C   0  0  0  0  0  0
    8.5207    2.7705   -2.2380 C   0  0  0  0  0  0
    9.8335    3.0527   -2.5659 C   0  0  0  0  0  0
   10.8630    2.6008   -1.7614 C   0  0  0  0  0  0
   10.5849    1.8642   -0.6246 C   0  0  0  0  0  0
    9.2719    1.5820   -0.2859 C   0  0  0  0  0  0
    8.9966    0.8624    0.8350 O   0  0  0  0  0  0
   10.1107    0.4340    1.6208 C   0  0  0  0  0  0
   10.1433    3.8546   -3.8037 C   0  0  0  0  0  0
   10.1761    5.2156   -3.4816 F   0  0  0  0  0  0
   11.3872    3.4656   -4.3121 F   0  0  0  0  0  0
    9.1541    3.6269   -4.7665 F   0  0  0  0  0  0
    6.1598    2.9753   -0.4680 C   0  0  0  0  0  0
    6.3722   -1.3759   -0.1357 C   0  0  0  0  0  0
    0.3021   -2.7953    1.3053 N   0  0  0  0  0  0
    5.6897   -3.1995    0.5463 H   0  0  0  0  0  0
    5.0762   -3.3961    2.0980 H   0  0  0  0  0  0
    3.7132    1.7864   -2.2439 H   0  0  0  0  0  0
    6.9201    0.1894   -2.1766 H   0  0  0  0  0  0
    6.0068    1.6384   -2.6606 H   0  0  0  0  0  0
    7.7184    3.1245   -2.8683 H   0  0  0  0  0  0
   11.8873    2.8233   -2.0217 H   0  0  0  0  0  0
   11.3915    1.5127    0.0016 H   0  0  0  0  0  0
   10.7585   -0.2012    1.0167 H   0  0  0  0  0  0
   10.6709    1.3045    1.9619 H   0  0  0  0  0  0
    9.7523   -0.1282    2.4831 H   0  0  0  0  0  0
    5.1889    2.7183   -0.0443 H   0  0  0  0  0  0
    6.7207    3.5766    0.2474 H   0  0  0  0  0  0
    6.0162    3.5438   -1.3869 H   0  0  0  0  0  0
    6.5740   -2.2136   -0.8032 H   0  0  0  0  0  0
    7.1623   -0.6318   -0.2374 H   0  0  0  0  0  0
    6.3387   -1.7318    0.8940 H   0  0  0  0  0  0
    0.2946   -3.5810    1.8740 H   0  0  0  0  0  0
   -0.5329   -2.3699    1.0548 H   0  0  0  0  0  0
  1  2  1  0  0  0
  1  6  2  0  0  0
  2  3  2  0  0  0
  2 28  1  0  0  0
  3  4  1  0  0  0
  4  5  2  0  0  0
  4 11  1  0  0  0
  5  6  1  0  0  0
  5  8  1  0  0  0
  6  7  1  0  0  0
  7 29  1  0  0  0
  7 30  1  0  0  0
  8  9  2  0  0  0
  8 27  1  0  0  0
  9 10  1  0  0  0
  9 12  1  0  0  0
 10 11  2  0  0  0
 10 31  1  0  0  0
 12 13  1  0  0  0
 12 32  1  0  0  0
 12 33  1  0  0  0
 13 14  1  0  0  0
 13 26  1  0  0  0
 14 15  1  0  0  0
 14 19  2  0  0  0
 15 16  2  0  0  0
 15 34  1  0  0  0
 16 17  1  0  0  0
 16 22  1  0  0  0
 17 18  2  0  0  0
 17 35  1  0  0  0
 18 19  1  0  0  0
 18 36  1  0  0  0
 19 20  1  0  0  0
 20 21  1  0  0  0
 21 37  1  0  0  0
 21 38  1  0  0  0
 21 39  1  0  0  0
 22 23  1  0  0  0
 22 24  1  0  0  0
 22 25  1  0  0  0
 26 40  1  0  0  0
 26 41  1  0  0  0
 26 42  1  0  0  0
 27 43  1  0  0  0
 27 44  1  0  0  0
 27 45  1  0  0  0
 28 46  1  0  0  0
 28 47  1  0  0  0
M  END
>  <Activity>
6.63827

>  <set_rl>
1

>  <Min_dist>
999.9

>  <Avg_dist>
999.9

>  <PC_uM>
0.093

>  <TG_uM>
0.038

>  <RL_uM>
0.23

$$$$
9-14M
 Wcorina  11170919323D 1   1.00000     0.00000              
CORINA evaluation license 3.46 0067  05.08.2008
 46 49  0  0  0  0  0  0  0  0999 V2000
    2.5997   -2.9537    1.1346 N   0  0  0  0  0  0
    1.4725   -2.3334    0.7982 C   0  0  0  0  0  0
    1.4495   -1.2441    0.0533 N   0  0  0  0  0  0
    2.5898   -0.7075   -0.4039 C   0  0  0  0  0  0
    3.8144   -1.3357   -0.0692 C   0  0  0  0  0  0
    3.7798   -2.5030    0.7331 C   0  0  0  0  0  0
    4.9421   -3.1521    1.0871 N   0  0  0  0  0  0
    5.0153   -0.7900   -0.5380 C   0  0  0  0  0  0
    4.9511    0.3409   -1.3088 C   0  0  0  0  0  0
    3.7174    0.9097   -1.6020 C   0  0  0  0  0  0
    2.5938    0.3920   -1.1585 N   0  0  0  0  0  0
    6.2158    0.9672   -1.8373 C   0  0  0  0  0  0
    6.8589    1.7467   -0.7710 N   0  0  0  0  0  0
    8.1809    2.0422   -1.0964 C   0  0  0  0  0  0
    8.4719    2.7735   -2.2286 C   0  0  0  0  0  0
    9.7889    3.0738   -2.5624 C   0  0  0  0  0  0
   10.8246    2.6554   -1.7836 C   0  0  0  0  0  0
   10.5712    1.9077   -0.6212 C   0  0  0  0  0  0
    9.2342    1.6008   -0.2672 C   0  0  0  0  0  0
    8.9823    0.8593    0.8977 C   0  0  0  0  0  0
   10.0230    0.4501    1.6745 C   0  0  0  0  0  0
   11.3381    0.7569    1.3307 C   0  0  0  0  0  0
   11.6205    1.4630    0.2018 C   0  0  0  0  0  0
    6.1008    2.9718   -0.4842 C   0  0  0  0  0  0
    6.3395   -1.4272   -0.2043 C   0  0  0  0  0  0
    0.2732   -2.8520    1.2477 N   0  0  0  0  0  0
    5.6529   -3.2635    0.4365 H   0  0  0  0  0  0
    5.0498   -3.4979    1.9870 H   0  0  0  0  0  0
    3.6810    1.8013   -2.2103 H   0  0  0  0  0  0
    6.8951    0.1846   -2.1753 H   0  0  0  0  0  0
    5.9743    1.6244   -2.6726 H   0  0  0  0  0  0
    7.6686    3.1167   -2.8636 H   0  0  0  0  0  0
    9.9930    3.6480   -3.4540 H   0  0  0  0  0  0
   11.8403    2.8977   -2.0595 H   0  0  0  0  0  0
    7.9680    0.6149    1.1766 H   0  0  0  0  0  0
    9.8263   -0.1203    2.5702 H   0  0  0  0  0  0
   12.1458    0.4208    1.9640 H   0  0  0  0  0  0
   12.6447    1.6925   -0.0528 H   0  0  0  0  0  0
    5.1305    2.7085   -0.0630 H   0  0  0  0  0  0
    6.6534    3.5822    0.2301 H   0  0  0  0  0  0
    5.9559    3.5338   -1.4068 H   0  0  0  0  0  0
    6.5314   -2.2490   -0.8943 H   0  0  0  0  0  0
    7.1327   -0.6850   -0.2937 H   0  0  0  0  0  0
    6.3122   -1.8087    0.8164 H   0  0  0  0  0  0
    0.2660   -3.6520    1.7963 H   0  0  0  0  0  0
   -0.5614   -2.4162    1.0147 H   0  0  0  0  0  0
  1  2  1  0  0  0
  1  6  2  0  0  0
  2  3  2  0  0  0
  2 26  1  0  0  0
  3  4  1  0  0  0
  4  5  2  0  0  0
  4 11  1  0  0  0
  5  6  1  0  0  0
  5  8  1  0  0  0
  6  7  1  0  0  0
  7 27  1  0  0  0
  7 28  1  0  0  0
  8  9  2  0  0  0
  8 25  1  0  0  0
  9 10  1  0  0  0
  9 12  1  0  0  0
 10 11  2  0  0  0
 10 29  1  0  0  0
 12 13  1  0  0  0
 12 30  1  0  0  0
 12 31  1  0  0  0
 13 14  1  0  0  0
 13 24  1  0  0  0
 14 15  1  0  0  0
 14 19  2  0  0  0
 15 16  2  0  0  0
 15 32  1  0  0  0
 16 17  1  0  0  0
 16 33  1  0  0  0
 17 18  2  0  0  0
 17 34  1  0  0  0
 18 19  1  0  0  0
 18 23  1  0  0  0
 19 20  1  0  0  0
 20 21  2  0  0  0
 20 35  1  0  0  0
 21 22  1  0  0  0
 21 36  1  0  0  0
 22 23  2  0  0  0
 22 37  1  0  0  0
 23 38  1  0  0  0
 24 39  1  0  0  0
 24 40  1  0  0  0
 24 41  1  0  0  0
 25 42  1  0  0  0
 25 43  1  0  0  0
 25 44  1  0  0  0
 26 45  1  0  0  0
 26 46  1  0  0  0
M  END
>  <Activity>
6.85387

>  <set_rl>
1

>  <Min_dist>
999.9

>  <Avg_dist>
999.9

>  <PC_uM>
0.15

>  <TG_uM>
0.016

>  <RL_uM>
0.14

$$$$
9-15B
 Wcorina  11170919323D 1   1.00000     0.00000              
CORINA evaluation license 3.46 0067  05.08.2008
 34 36  0  0  0  0  0  0  0  0999 V2000
   -0.0160    1.3257    0.0093 N   0  0  0  0  0  0
    0.0021   -0.0041    0.0020 C   0  0  0  0  0  0
    1.1203   -0.7049   -0.0120 N   0  0  0  0  0  0
    2.3106   -0.0881   -0.0200 C   0  0  0  0  0  0
    2.3382    1.3281   -0.0131 C   0  0  0  0  0  0
    1.1072    2.0294    0.0024 C   0  0  0  0  0  0
    1.0784    3.4067    0.0096 N   0  0  0  0  0  0
    3.5719    1.9896   -0.0209 C   0  0  0  0  0  0
    4.7108    1.2282   -0.0349 C   0  0  0  0  0  0
    4.6164   -0.1584   -0.0411 C   0  0  0  0  0  0
    3.4548   -0.7729   -0.0338 N   0  0  0  0  0  0
    6.0633    1.8928   -0.0442 C   0  0  0  0  0  0
    6.5142    2.1017    1.3339 N   0  0  0  0  0  0
    7.7496    2.7065    1.5808 C   0  0  0  0  0  0
    8.1784    2.9051    2.8869 C   0  0  0  0  0  0
    9.3997    3.5031    3.1280 C   0  0  0  0  0  0
   10.1960    3.9042    2.0698 C   0  0  0  0  0  0
    9.7711    3.7080    0.7675 C   0  0  0  0  0  0
    8.5535    3.1049    0.5205 C   0  0  0  0  0  0
   11.7307    4.6555    2.3765 Cl  0  0  0  0  0  0
   -1.2023   -0.6814    0.0099 N   0  0  0  0  0  0
    0.2285    3.8740    0.0199 H   0  0  0  0  0  0
    1.9081    3.9092    0.0044 H   0  0  0  0  0  0
    3.6243    3.0683   -0.0162 H   0  0  0  0  0  0
    5.5220   -0.7467   -0.0526 H   0  0  0  0  0  0
    6.7771    1.2568   -0.5676 H   0  0  0  0  0  0
    5.9921    2.8543   -0.5528 H   0  0  0  0  0  0
    5.9553    1.8202    2.0751 H   0  0  0  0  0  0
    7.5571    2.5925    3.7132 H   0  0  0  0  0  0
    9.7334    3.6581    4.1434 H   0  0  0  0  0  0
   10.3943    4.0227   -0.0565 H   0  0  0  0  0  0
    8.2246    2.9473   -0.4960 H   0  0  0  0  0  0
   -2.0368   -0.1869    0.0205 H   0  0  0  0  0  0
   -1.2133   -1.6513    0.0048 H   0  0  0  0  0  0
  1  2  1  0  0  0
  1  6  2  0  0  0
  2  3  2  0  0  0
  2 21  1  0  0  0
  3  4  1  0  0  0
  4  5  2  0  0  0
  4 11  1  0  0  0
  5  6  1  0  0  0
  5  8  1  0  0  0
  6  7  1  0  0  0
  7 22  1  0  0  0
  7 23  1  0  0  0
  8  9  2  0  0  0
  8 24  1  0  0  0
  9 10  1  0  0  0
  9 12  1  0  0  0
 10 11  2  0  0  0
 10 25  1  0  0  0
 12 13  1  0  0  0
 12 26  1  0  0  0
 12 27  1  0  0  0
 13 14  1  0  0  0
 13 28  1  0  0  0
 14 15  1  0  0  0
 14 19  2  0  0  0
 15 16  2  0  0  0
 15 29  1  0  0  0
 16 17  1  0  0  0
 16 30  1  0  0  0
 17 18  2  0  0  0
 17 20  1  0  0  0
 18 19  1  0  0  0
 18 31  1  0  0  0
 19 32  1  0  0  0
 21 33  1  0  0  0
 21 34  1  0  0  0
M  END
>  <Activity>
6.14267

>  <set_rl>
1

>  <Min_dist>
999.9

>  <Avg_dist>
999.9

>  <PC_uM>
0.97

>  <TG_uM>
0.3

>  <RL_uM>
0.72

$$$$
9-15C
 Wcorina  11170919323D 1   1.00000     0.00000              
CORINA evaluation license 3.46 0067  05.08.2008
 46 48  0  0  0  0  0  0  0  0999 V2000
   -0.0160    1.3257    0.0093 N   0  0  0  0  0  0
    0.0021   -0.0041    0.0020 C   0  0  0  0  0  0
    1.1203   -0.7049   -0.0120 N   0  0  0  0  0  0
    2.3106   -0.0881   -0.0200 C   0  0  0  0  0  0
    2.3382    1.3281   -0.0131 C   0  0  0  0  0  0
    1.1072    2.0294    0.0024 C   0  0  0  0  0  0
    1.0784    3.4067    0.0096 N   0  0  0  0  0  0
    3.5719    1.9896   -0.0209 C   0  0  0  0  0  0
    4.7108    1.2282   -0.0349 C   0  0  0  0  0  0
    4.6164   -0.1584   -0.0411 C   0  0  0  0  0  0
    3.4548   -0.7729   -0.0338 N   0  0  0  0  0  0
    6.0633    1.8928   -0.0442 C   0  0  0  0  0  0
    6.5142    2.1017    1.3339 N   0  0  0  0  0  0
    7.7510    2.7072    1.5811 C   0  0  0  0  0  0
    8.1780    2.9049    2.8872 C   0  0  0  0  0  0
    9.4033    3.5047    3.1329 C   0  0  0  0  0  0
   10.2043    3.9082    2.0714 C   0  0  0  0  0  0
    9.7763    3.7099    0.7643 C   0  0  0  0  0  0
    8.5532    3.1048    0.5201 C   0  0  0  0  0  0
   10.5595    4.1044   -0.2751 O   0  0  0  0  0  0
   10.0567    3.8695   -1.5919 C   0  0  0  0  0  0
   11.4081    4.4980    2.3120 O   0  0  0  0  0  0
   12.5434    3.6364    2.4164 C   0  0  0  0  0  0
    9.8212    3.6988    4.4124 O   0  0  0  0  0  0
    8.9469    3.2600    5.4540 C   0  0  0  0  0  0
   -1.2023   -0.6814    0.0099 N   0  0  0  0  0  0
    0.2285    3.8740    0.0199 H   0  0  0  0  0  0
    1.9081    3.9092    0.0044 H   0  0  0  0  0  0
    3.6243    3.0683   -0.0162 H   0  0  0  0  0  0
    5.5220   -0.7467   -0.0526 H   0  0  0  0  0  0
    6.7771    1.2568   -0.5676 H   0  0  0  0  0  0
    5.9921    2.8543   -0.5528 H   0  0  0  0  0  0
    5.9553    1.8202    2.0751 H   0  0  0  0  0  0
    7.5552    2.5916    3.7121 H   0  0  0  0  0  0
    8.2225    2.9463   -0.4957 H   0  0  0  0  0  0
   10.7773    4.2304   -2.3258 H   0  0  0  0  0  0
    9.8971    2.8007   -1.7346 H   0  0  0  0  0  0
    9.1121    4.3982   -1.7199 H   0  0  0  0  0  0
   12.6683    3.0854    1.4842 H   0  0  0  0  0  0
   13.4355    4.2325    2.6085 H   0  0  0  0  0  0
   12.3923    2.9340    3.2361 H   0  0  0  0  0  0
    9.3994    3.4738    6.4224 H   0  0  0  0  0  0
    7.9947    3.7845    5.3742 H   0  0  0  0  0  0
    8.7796    2.1870    5.3601 H   0  0  0  0  0  0
   -2.0368   -0.1869    0.0205 H   0  0  0  0  0  0
   -1.2133   -1.6513    0.0048 H   0  0  0  0  0  0
  1  2  1  0  0  0
  1  6  2  0  0  0
  2  3  2  0  0  0
  2 26  1  0  0  0
  3  4  1  0  0  0
  4  5  2  0  0  0
  4 11  1  0  0  0
  5  6  1  0  0  0
  5  8  1  0  0  0
  6  7  1  0  0  0
  7 27  1  0  0  0
  7 28  1  0  0  0
  8  9  2  0  0  0
  8 29  1  0  0  0
  9 10  1  0  0  0
  9 12  1  0  0  0
 10 11  2  0  0  0
 10 30  1  0  0  0
 12 13  1  0  0  0
 12 31  1  0  0  0
 12 32  1  0  0  0
 13 14  1  0  0  0
 13 33  1  0  0  0
 14 15  1  0  0  0
 14 19  2  0  0  0
 15 16  2  0  0  0
 15 34  1  0  0  0
 16 17  1  0  0  0
 16 24  1  0  0  0
 17 18  2  0  0  0
 17 22  1  0  0  0
 18 19  1  0  0  0
 18 20  1  0  0  0
 19 35  1  0  0  0
 20 21  1  0  0  0
 21 36  1  0  0  0
 21 37  1  0  0  0
 21 38  1  0  0  0
 22 23  1  0  0  0
 23 39  1  0  0  0
 23 40  1  0  0  0
 23 41  1  0  0  0
 24 25  1  0  0  0
 25 42  1  0  0  0
 25 43  1  0  0  0
 25 44  1  0  0  0
 26 45  1  0  0  0
 26 46  1  0  0  0
M  END
>  <Activity>
6.09151

>  <set_rl>
1

>  <Min_dist>
999.9

>  <Avg_dist>
999.9

>  <PC_uM>
2

>  <TG_uM>
0.13

>  <RL_uM>
0.81

$$$$
9-16D
 Wcorina  11170919323D 1   1.00000     0.00000              
CORINA evaluation license 3.46 0067  05.08.2008
 42 44  0  0  0  0  0  0  0  0999 V2000
   -0.0160    1.3257    0.0093 N   0  0  0  0  0  0
    0.0021   -0.0041    0.0020 C   0  0  0  0  0  0
    1.1203   -0.7049   -0.0120 N   0  0  0  0  0  0
    2.3106   -0.0881   -0.0200 C   0  0  0  0  0  0
    2.3382    1.3281   -0.0131 C   0  0  0  0  0  0
    1.1072    2.0294    0.0024 C   0  0  0  0  0  0
    1.0784    3.4067    0.0096 N   0  0  0  0  0  0
    3.5719    1.9896   -0.0209 C   0  0  0  0  0  0
    4.7108    1.2282   -0.0349 C   0  0  0  0  0  0
    4.6164   -0.1584   -0.0411 C   0  0  0  0  0  0
    3.4548   -0.7729   -0.0338 N   0  0  0  0  0  0
    6.0633    1.8928   -0.0442 C   0  0  0  0  0  0
    6.5142    2.1017    1.3339 N   0  0  0  0  0  0
    7.7514    2.7073    1.5812 C   0  0  0  0  0  0
    8.5516    3.1104    0.5224 C   0  0  0  0  0  0
    9.7765    3.7105    0.7705 C   0  0  0  0  0  0
   10.2018    3.9074    2.0760 C   0  0  0  0  0  0
    9.4059    3.5061    3.1331 C   0  0  0  0  0  0
    8.1788    2.9118    2.8911 C   0  0  0  0  0  0
    7.3935    2.5226    3.9323 O   0  0  0  0  0  0
    7.8951    2.7634    5.2485 C   0  0  0  0  0  0
   10.5618    4.1060   -0.2667 O   0  0  0  0  0  0
   11.8110    4.7174    0.0616 C   0  0  0  0  0  0
   -1.2023   -0.6814    0.0099 N   0  0  0  0  0  0
    0.2285    3.8740    0.0199 H   0  0  0  0  0  0
    1.9081    3.9092    0.0044 H   0  0  0  0  0  0
    3.6243    3.0683   -0.0162 H   0  0  0  0  0  0
    5.5220   -0.7467   -0.0526 H   0  0  0  0  0  0
    6.7771    1.2568   -0.5676 H   0  0  0  0  0  0
    5.9921    2.8543   -0.5528 H   0  0  0  0  0  0
    5.9553    1.8202    2.0751 H   0  0  0  0  0  0
    8.2211    2.9565   -0.4942 H   0  0  0  0  0  0
   11.1565    4.3748    2.2672 H   0  0  0  0  0  0
    9.7397    3.6603    4.1485 H   0  0  0  0  0  0
    7.1733    2.4066    5.9832 H   0  0  0  0  0  0
    8.8391    2.2345    5.3800 H   0  0  0  0  0  0
    8.0555    3.8326    5.3863 H   0  0  0  0  0  0
   11.6317    5.6157    0.6523 H   0  0  0  0  0  0
   12.4172    4.0185    0.6380 H   0  0  0  0  0  0
   12.3370    4.9842   -0.8551 H   0  0  0  0  0  0
   -2.0368   -0.1869    0.0205 H   0  0  0  0  0  0
   -1.2133   -1.6513    0.0048 H   0  0  0  0  0  0
  1  2  1  0  0  0
  1  6  2  0  0  0
  2  3  2  0  0  0
  2 24  1  0  0  0
  3  4  1  0  0  0
  4  5  2  0  0  0
  4 11  1  0  0  0
  5  6  1  0  0  0
  5  8  1  0  0  0
  6  7  1  0  0  0
  7 25  1  0  0  0
  7 26  1  0  0  0
  8  9  2  0  0  0
  8 27  1  0  0  0
  9 10  1  0  0  0
  9 12  1  0  0  0
 10 11  2  0  0  0
 10 28  1  0  0  0
 12 13  1  0  0  0
 12 29  1  0  0  0
 12 30  1  0  0  0
 13 14  1  0  0  0
 13 31  1  0  0  0
 14 15  1  0  0  0
 14 19  2  0  0  0
 15 16  2  0  0  0
 15 32  1  0  0  0
 16 17  1  0  0  0
 16 22  1  0  0  0
 17 18  2  0  0  0
 17 33  1  0  0  0
 18 19  1  0  0  0
 18 34  1  0  0  0
 19 20  1  0  0  0
 20 21  1  0  0  0
 21 35  1  0  0  0
 21 36  1  0  0  0
 21 37  1  0  0  0
 22 23  1  0  0  0
 23 38  1  0  0  0
 23 39  1  0  0  0
 23 40  1  0  0  0
 24 41  1  0  0  0
 24 42  1  0  0  0
M  END
>  <Activity>
6.33724

>  <set_rl>
1

>  <Min_dist>
999.9

>  <Avg_dist>
999.9

>  <PC_uM>
0.75

>  <TG_uM>
0.14

>  <RL_uM>
0.46

$$$$
25-12
 Wcorina  11170919323D 1   1.00000     0.00000              
CORINA evaluation license 3.46 0067  05.08.2008
 49 51  0  0  0  0  0  0  0  0999 V2000
   -0.0160    1.3259    0.0093 N   0  0  0  0  0  0
    0.0021   -0.0041    0.0020 C   0  0  0  0  0  0
    1.1196   -0.7048   -0.0124 N   0  0  0  0  0  0
    2.3114   -0.0881   -0.0205 C   0  0  0  0  0  0
    2.3382    1.3279   -0.0131 C   0  0  0  0  0  0
    1.1072    2.0292    0.0024 C   0  0  0  0  0  0
    1.0785    3.4072    0.0096 N   0  0  0  0  0  0
    3.5707    1.9919   -0.0208 C   0  0  0  0  0  0
    4.7220    1.2213   -0.0355 C   0  0  0  0  0  0
    4.6188   -0.1712   -0.0421 C   0  0  0  0  0  0
    3.4531   -0.7762   -0.0346 N   0  0  0  0  0  0
    5.9799    1.8345   -0.0442 N   0  0  0  0  0  0
    7.1941    1.0150   -0.0597 C   0  0  0  0  0  0
    7.5972    0.7412   -1.4858 C   0  0  0  0  0  0
    8.4518    1.6091   -2.1392 C   0  0  0  0  0  0
    8.8247    1.3610   -3.4516 C   0  0  0  0  0  0
    8.3384    0.2377   -4.1097 C   0  0  0  0  0  0
    7.4797   -0.6328   -3.4489 C   0  0  0  0  0  0
    7.1157   -0.3802   -2.1349 C   0  0  0  0  0  0
    7.0008   -1.7331   -4.0887 O   0  0  0  0  0  0
    6.1229   -2.5834   -3.3481 C   0  0  0  0  0  0
    8.7017   -0.0091   -5.3978 O   0  0  0  0  0  0
    9.8743   -0.8002   -5.6009 C   0  0  0  0  0  0
    9.6649    2.2160   -4.0939 O   0  0  0  0  0  0
   10.1251    3.3500   -3.3562 C   0  0  0  0  0  0
    6.0825    3.2959   -0.0377 C   0  0  0  0  0  0
   -1.2032   -0.6817    0.0104 N   0  0  0  0  0  0
    0.2286    3.8746    0.0199 H   0  0  0  0  0  0
    1.9082    3.9096    0.0044 H   0  0  0  0  0  0
    3.6224    3.0706   -0.0159 H   0  0  0  0  0  0
    5.5204   -0.7657   -0.0535 H   0  0  0  0  0  0
    7.9979    1.5468    0.4493 H   0  0  0  0  0  0
    7.0022    0.0714    0.4512 H   0  0  0  0  0  0
    8.8293    2.4818   -1.6271 H   0  0  0  0  0  0
    6.4520   -1.0585   -1.6193 H   0  0  0  0  0  0
    6.6403   -2.9597   -2.4657 H   0  0  0  0  0  0
    5.2435   -2.0177   -3.0401 H   0  0  0  0  0  0
    5.8151   -3.4212   -3.9738 H   0  0  0  0  0  0
    9.7357   -1.7795   -5.1430 H   0  0  0  0  0  0
   10.0506   -0.9206   -6.6698 H   0  0  0  0  0  0
   10.7309   -0.3038   -5.1450 H   0  0  0  0  0  0
   10.7860    3.9479   -3.9837 H   0  0  0  0  0  0
    9.2715    3.9541   -3.0485 H   0  0  0  0  0  0
   10.6687    3.0131   -2.4736 H   0  0  0  0  0  0
    6.1176    3.6531    0.9915 H   0  0  0  0  0  0
    6.9909    3.5986   -0.5586 H   0  0  0  0  0  0
    5.2154    3.7232   -0.5413 H   0  0  0  0  0  0
   -2.0376   -0.1872    0.0213 H   0  0  0  0  0  0
   -1.2143   -1.6516    0.0053 H   0  0  0  0  0  0
  1  2  1  0  0  0
  1  6  2  0  0  0
  2  3  2  0  0  0
  2 27  1  0  0  0
  3  4  1  0  0  0
  4  5  2  0  0  0
  4 11  1  0  0  0
  5  6  1  0  0  0
  5  8  1  0  0  0
  6  7  1  0  0  0
  7 28  1  0  0  0
  7 29  1  0  0  0
  8  9  2  0  0  0
  8 30  1  0  0  0
  9 10  1  0  0  0
  9 12  1  0  0  0
 10 11  2  0  0  0
 10 31  1  0  0  0
 12 13  1  0  0  0
 12 26  1  0  0  0
 13 14  1  0  0  0
 13 32  1  0  0  0
 13 33  1  0  0  0
 14 15  1  0  0  0
 14 19  2  0  0  0
 15 16  2  0  0  0
 15 34  1  0  0  0
 16 17  1  0  0  0
 16 24  1  0  0  0
 17 18  2  0  0  0
 17 22  1  0  0  0
 18 19  1  0  0  0
 18 20  1  0  0  0
 19 35  1  0  0  0
 20 21  1  0  0  0
 21 36  1  0  0  0
 21 37  1  0  0  0
 21 38  1  0  0  0
 22 23  1  0  0  0
 23 39  1  0  0  0
 23 40  1  0  0  0
 23 41  1  0  0  0
 24 25  1  0  0  0
 25 42  1  0  0  0
 25 43  1  0  0  0
 25 44  1  0  0  0
 26 45  1  0  0  0
 26 46  1  0  0  0
 26 47  1  0  0  0
 27 48  1  0  0  0
 27 49  1  0  0  0
M  END
>  <Activity>
7.48149

>  <set_rl>
1

>  <Min_dist>
999.9

>  <Avg_dist>
999.9

>  <PC_uM>
0.061

>  <TG_uM>
0.014

>  <RL_uM>
0.033

$$$$
25-14
 Wcorina  11170919323D 1   1.00000     0.00000              
CORINA evaluation license 3.46 0067  05.08.2008
 46 48  0  0  0  0  0  0  0  0999 V2000
   -0.0160    1.3259    0.0093 N   0  0  0  0  0  0
    0.0021   -0.0041    0.0020 C   0  0  0  0  0  0
    1.1196   -0.7048   -0.0124 N   0  0  0  0  0  0
    2.3114   -0.0881   -0.0205 C   0  0  0  0  0  0
    2.3382    1.3279   -0.0131 C   0  0  0  0  0  0
    1.1072    2.0292    0.0024 C   0  0  0  0  0  0
    1.0785    3.4072    0.0096 N   0  0  0  0  0  0
    3.5707    1.9919   -0.0208 C   0  0  0  0  0  0
    4.7220    1.2213   -0.0355 C   0  0  0  0  0  0
    4.6188   -0.1712   -0.0421 C   0  0  0  0  0  0
    3.4531   -0.7762   -0.0346 N   0  0  0  0  0  0
    5.9799    1.8345   -0.0442 N   0  0  0  0  0  0
    7.1941    1.0150   -0.0597 C   0  0  0  0  0  0
    8.4053    1.9117   -0.0665 C   0  0  0  0  0  0
    9.0728    2.1613   -1.2512 C   0  0  0  0  0  0
   10.1841    2.9829   -1.2627 C   0  0  0  0  0  0
   10.6343    3.5602   -0.0848 C   0  0  0  0  0  0
    9.9662    3.3119    1.1080 C   0  0  0  0  0  0
    8.8453    2.4898    1.1144 C   0  0  0  0  0  0
    8.1844    2.2486    2.2782 O   0  0  0  0  0  0
    8.6162    1.1252    3.0486 C   0  0  0  0  0  0
   10.4048    3.8765    2.2660 O   0  0  0  0  0  0
    9.8660    5.1547    2.6093 C   0  0  0  0  0  0
   11.7284    4.3678   -0.0971 O   0  0  0  0  0  0
   12.3653    4.5782   -1.3589 C   0  0  0  0  0  0
   -1.2032   -0.6817    0.0104 N   0  0  0  0  0  0
    0.2286    3.8746    0.0199 H   0  0  0  0  0  0
    1.9082    3.9096    0.0044 H   0  0  0  0  0  0
    3.6224    3.0706   -0.0159 H   0  0  0  0  0  0
    5.5204   -0.7657   -0.0535 H   0  0  0  0  0  0
    6.0478    2.8021   -0.0399 H   0  0  0  0  0  0
    7.2162    0.3813    0.8269 H   0  0  0  0  0  0
    7.1995    0.3903   -0.9529 H   0  0  0  0  0  0
    8.7252    1.7127   -2.1700 H   0  0  0  0  0  0
   10.7028    3.1754   -2.1903 H   0  0  0  0  0  0
    9.6618    1.2561    3.3273 H   0  0  0  0  0  0
    8.0072    1.0466    3.9492 H   0  0  0  0  0  0
    8.5089    0.2160    2.4570 H   0  0  0  0  0  0
   10.1052    5.8724    1.8246 H   0  0  0  0  0  0
    8.7837    5.0770    2.7129 H   0  0  0  0  0  0
   10.2981    5.4899    3.5522 H   0  0  0  0  0  0
   12.7025    3.6222   -1.7596 H   0  0  0  0  0  0
   11.6576    5.0333   -2.0517 H   0  0  0  0  0  0
   13.2218    5.2395   -1.2277 H   0  0  0  0  0  0
   -2.0376   -0.1872    0.0213 H   0  0  0  0  0  0
   -1.2143   -1.6516    0.0053 H   0  0  0  0  0  0
  1  2  1  0  0  0
  1  6  2  0  0  0
  2  3  2  0  0  0
  2 26  1  0  0  0
  3  4  1  0  0  0
  4  5  2  0  0  0
  4 11  1  0  0  0
  5  6  1  0  0  0
  5  8  1  0  0  0
  6  7  1  0  0  0
  7 27  1  0  0  0
  7 28  1  0  0  0
  8  9  2  0  0  0
  8 29  1  0  0  0
  9 10  1  0  0  0
  9 12  1  0  0  0
 10 11  2  0  0  0
 10 30  1  0  0  0
 12 13  1  0  0  0
 12 31  1  0  0  0
 13 14  1  0  0  0
 13 32  1  0  0  0
 13 33  1  0  0  0
 14 15  1  0  0  0
 14 19  2  0  0  0
 15 16  2  0  0  0
 15 34  1  0  0  0
 16 17  1  0  0  0
 16 35  1  0  0  0
 17 18  2  0  0  0
 17 24  1  0  0  0
 18 19  1  0  0  0
 18 22  1  0  0  0
 19 20  1  0  0  0
 20 21  1  0  0  0
 21 36  1  0  0  0
 21 37  1  0  0  0
 21 38  1  0  0  0
 22 23  1  0  0  0
 23 39  1  0  0  0
 23 40  1  0  0  0
 23 41  1  0  0  0
 24 25  1  0  0  0
 25 42  1  0  0  0
 25 43  1  0  0  0
 25 44  1  0  0  0
 26 45  1  0  0  0
 26 46  1  0  0  0
M  END
>  <Activity>
5.48945

>  <set_rl>
1

>  <Min_dist>
999.9

>  <Avg_dist>
999.9

>  <PC_uM>
15.3

>  <TG_uM>
0.67

>  <RL_uM>
3.24

$$$$
25-16
 Wcorina  11170919323D 1   1.00000     0.00000              
CORINA evaluation license 3.46 0067  05.08.2008
 46 48  0  0  0  0  0  0  0  0999 V2000
   -0.0160    1.3259    0.0093 N   0  0  0  0  0  0
    0.0021   -0.0041    0.0020 C   0  0  0  0  0  0
    1.1196   -0.7048   -0.0124 N   0  0  0  0  0  0
    2.3114   -0.0881   -0.0205 C   0  0  0  0  0  0
    2.3382    1.3279   -0.0131 C   0  0  0  0  0  0
    1.1072    2.0292    0.0024 C   0  0  0  0  0  0
    1.0785    3.4072    0.0096 N   0  0  0  0  0  0
    3.5707    1.9919   -0.0208 C   0  0  0  0  0  0
    4.7220    1.2213   -0.0355 C   0  0  0  0  0  0
    4.6188   -0.1712   -0.0421 C   0  0  0  0  0  0
    3.4531   -0.7762   -0.0346 N   0  0  0  0  0  0
    5.9799    1.8345   -0.0442 N   0  0  0  0  0  0
    7.1941    1.0150   -0.0597 C   0  0  0  0  0  0
    8.4053    1.9117   -0.0665 C   0  0  0  0  0  0
    8.9738    2.3182    1.1313 C   0  0  0  0  0  0
   10.0883    3.1434    1.1250 C   0  0  0  0  0  0
   10.6346    3.5617   -0.0790 C   0  0  0  0  0  0
   10.0666    3.1545   -1.2768 C   0  0  0  0  0  0
    8.9547    2.3257   -1.2706 C   0  0  0  0  0  0
    8.4009    1.9229   -2.4444 O   0  0  0  0  0  0
    9.0186    2.3875   -3.6463 C   0  0  0  0  0  0
   11.7262    4.3711   -0.0851 O   0  0  0  0  0  0
   12.2359    4.7632   -1.3612 C   0  0  0  0  0  0
    8.4385    1.9083    2.3111 O   0  0  0  0  0  0
    9.0752    2.3653    3.5060 C   0  0  0  0  0  0
   -1.2032   -0.6817    0.0104 N   0  0  0  0  0  0
    0.2286    3.8746    0.0199 H   0  0  0  0  0  0
    1.9082    3.9096    0.0044 H   0  0  0  0  0  0
    3.6224    3.0706   -0.0159 H   0  0  0  0  0  0
    5.5204   -0.7657   -0.0535 H   0  0  0  0  0  0
    6.0478    2.8021   -0.0399 H   0  0  0  0  0  0
    7.2162    0.3813    0.8269 H   0  0  0  0  0  0
    7.1995    0.3903   -0.9529 H   0  0  0  0  0  0
   10.5306    3.4605    2.0578 H   0  0  0  0  0  0
   10.4918    3.4806   -2.2145 H   0  0  0  0  0  0
   10.0534    2.0464   -3.6784 H   0  0  0  0  0  0
    8.4793    1.9935   -4.5077 H   0  0  0  0  0  0
    8.9943    3.4770   -3.6697 H   0  0  0  0  0  0
   12.5257    3.8763   -1.9248 H   0  0  0  0  0  0
   11.4657    5.3061   -1.9090 H   0  0  0  0  0  0
   13.1052    5.4061   -1.2233 H   0  0  0  0  0  0
    9.0516    3.4546    3.5365 H   0  0  0  0  0  0
    8.5495    1.9661    4.3734 H   0  0  0  0  0  0
   10.1103    2.0237    3.5196 H   0  0  0  0  0  0
   -2.0376   -0.1872    0.0213 H   0  0  0  0  0  0
   -1.2143   -1.6516    0.0053 H   0  0  0  0  0  0
  1  2  1  0  0  0
  1  6  2  0  0  0
  2  3  2  0  0  0
  2 26  1  0  0  0
  3  4  1  0  0  0
  4  5  2  0  0  0
  4 11  1  0  0  0
  5  6  1  0  0  0
  5  8  1  0  0  0
  6  7  1  0  0  0
  7 27  1  0  0  0
  7 28  1  0  0  0
  8  9  2  0  0  0
  8 29  1  0  0  0
  9 10  1  0  0  0
  9 12  1  0  0  0
 10 11  2  0  0  0
 10 30  1  0  0  0
 12 13  1  0  0  0
 12 31  1  0  0  0
 13 14  1  0  0  0
 13 32  1  0  0  0
 13 33  1  0  0  0
 14 15  1  0  0  0
 14 19  2  0  0  0
 15 16  2  0  0  0
 15 24  1  0  0  0
 16 17  1  0  0  0
 16 34  1  0  0  0
 17 18  2  0  0  0
 17 22  1  0  0  0
 18 19  1  0  0  0
 18 35  1  0  0  0
 19 20  1  0  0  0
 20 21  1  0  0  0
 21 36  1  0  0  0
 21 37  1  0  0  0
 21 38  1  0  0  0
 22 23  1  0  0  0
 23 39  1  0  0  0
 23 40  1  0  0  0
 23 41  1  0  0  0
 24 25  1  0  0  0
 25 42  1  0  0  0
 25 43  1  0  0  0
 25 44  1  0  0  0
 26 45  1  0  0  0
 26 46  1  0  0  0
M  END
>  <Activity>
5.92082

>  <set_rl>
1

>  <Min_dist>
999.9

>  <Avg_dist>
999.9

>  <PC_uM>
20.7

>  <TG_uM>
0.23

>  <RL_uM>
1.2

$$$$
25-19
 Wcorina  11170919323D 1   1.00000     0.00000              
CORINA evaluation license 3.46 0067  05.08.2008
 42 44  0  0  0  0  0  0  0  0999 V2000
   -0.0160    1.3259    0.0093 N   0  0  0  0  0  0
    0.0021   -0.0041    0.0020 C   0  0  0  0  0  0
    1.1196   -0.7048   -0.0124 N   0  0  0  0  0  0
    2.3114   -0.0881   -0.0205 C   0  0  0  0  0  0
    2.3382    1.3279   -0.0131 C   0  0  0  0  0  0
    1.1072    2.0292    0.0024 C   0  0  0  0  0  0
    1.0785    3.4072    0.0096 N   0  0  0  0  0  0
    3.5707    1.9919   -0.0208 C   0  0  0  0  0  0
    4.7220    1.2213   -0.0355 C   0  0  0  0  0  0
    4.6188   -0.1712   -0.0421 C   0  0  0  0  0  0
    3.4531   -0.7762   -0.0346 N   0  0  0  0  0  0
    5.9799    1.8345   -0.0442 N   0  0  0  0  0  0
    7.1941    1.0150   -0.0597 C   0  0  0  0  0  0
    8.4053    1.9117   -0.0665 C   0  0  0  0  0  0
    8.9708    2.3160    1.1276 C   0  0  0  0  0  0
   10.0859    3.1421    1.1240 C   0  0  0  0  0  0
   10.6327    3.5613   -0.0790 C   0  0  0  0  0  0
   10.0637    3.1539   -1.2758 C   0  0  0  0  0  0
    8.9518    2.3236   -1.2669 C   0  0  0  0  0  0
   10.5972    3.5635   -2.4566 O   0  0  0  0  0  0
   11.7443    4.4131   -2.3903 C   0  0  0  0  0  0
   10.6411    3.5402    2.2988 O   0  0  0  0  0  0
   11.7872    4.3901    2.2196 C   0  0  0  0  0  0
   -1.2032   -0.6817    0.0104 N   0  0  0  0  0  0
    0.2286    3.8746    0.0199 H   0  0  0  0  0  0
    1.9082    3.9096    0.0044 H   0  0  0  0  0  0
    3.6224    3.0706   -0.0159 H   0  0  0  0  0  0
    5.5204   -0.7657   -0.0535 H   0  0  0  0  0  0
    6.0478    2.8021   -0.0399 H   0  0  0  0  0  0
    7.2162    0.3813    0.8269 H   0  0  0  0  0  0
    7.1995    0.3903   -0.9529 H   0  0  0  0  0  0
    8.5445    1.9892    2.0645 H   0  0  0  0  0  0
   11.5002    4.2045   -0.0839 H   0  0  0  0  0  0
    8.5106    2.0026   -2.1990 H   0  0  0  0  0  0
   11.4897    5.3259   -1.8516 H   0  0  0  0  0  0
   12.5497    3.8960   -1.8688 H   0  0  0  0  0  0
   12.0683    4.6655   -3.4000 H   0  0  0  0  0  0
   12.5827    3.8779    1.6784 H   0  0  0  0  0  0
   11.5232    5.3081    1.6945 H   0  0  0  0  0  0
   12.1299    4.6326    3.2255 H   0  0  0  0  0  0
   -2.0376   -0.1872    0.0213 H   0  0  0  0  0  0
   -1.2143   -1.6516    0.0053 H   0  0  0  0  0  0
  1  2  1  0  0  0
  1  6  2  0  0  0
  2  3  2  0  0  0
  2 24  1  0  0  0
  3  4  1  0  0  0
  4  5  2  0  0  0
  4 11  1  0  0  0
  5  6  1  0  0  0
  5  8  1  0  0  0
  6  7  1  0  0  0
  7 25  1  0  0  0
  7 26  1  0  0  0
  8  9  2  0  0  0
  8 27  1  0  0  0
  9 10  1  0  0  0
  9 12  1  0  0  0
 10 11  2  0  0  0
 10 28  1  0  0  0
 12 13  1  0  0  0
 12 29  1  0  0  0
 13 14  1  0  0  0
 13 30  1  0  0  0
 13 31  1  0  0  0
 14 15  1  0  0  0
 14 19  2  0  0  0
 15 16  2  0  0  0
 15 32  1  0  0  0
 16 17  1  0  0  0
 16 22  1  0  0  0
 17 18  2  0  0  0
 17 33  1  0  0  0
 18 19  1  0  0  0
 18 20  1  0  0  0
 19 34  1  0  0  0
 20 21  1  0  0  0
 21 35  1  0  0  0
 21 36  1  0  0  0
 21 37  1  0  0  0
 22 23  1  0  0  0
 23 38  1  0  0  0
 23 39  1  0  0  0
 23 40  1  0  0  0
 24 41  1  0  0  0
 24 42  1  0  0  0
M  END
>  <Activity>
5.46852

>  <set_rl>
1

>  <Min_dist>
999.9

>  <Avg_dist>
999.9

>  <PC_uM>
5.7

>  <TG_uM>
1.2

>  <RL_uM>
3.4

$$$$
25-20
 Wcorina  11170919323D 1   1.00000     0.00000              
CORINA evaluation license 3.46 0067  05.08.2008
 45 47  0  0  0  0  0  0  0  0999 V2000
   -0.0160    1.3259    0.0093 N   0  0  0  0  0  0
    0.0021   -0.0041    0.0020 C   0  0  0  0  0  0
    1.1196   -0.7048   -0.0124 N   0  0  0  0  0  0
    2.3114   -0.0881   -0.0205 C   0  0  0  0  0  0
    2.3382    1.3279   -0.0131 C   0  0  0  0  0  0
    1.1072    2.0292    0.0024 C   0  0  0  0  0  0
    1.0785    3.4072    0.0096 N   0  0  0  0  0  0
    3.5707    1.9919   -0.0208 C   0  0  0  0  0  0
    4.7220    1.2213   -0.0355 C   0  0  0  0  0  0
    4.6188   -0.1712   -0.0421 C   0  0  0  0  0  0
    3.4531   -0.7762   -0.0346 N   0  0  0  0  0  0
    5.9799    1.8345   -0.0442 N   0  0  0  0  0  0
    7.1941    1.0150   -0.0597 C   0  0  0  0  0  0
    7.5972    0.7412   -1.4858 C   0  0  0  0  0  0
    8.4514    1.6083   -2.1397 C   0  0  0  0  0  0
    8.8237    1.3586   -3.4530 C   0  0  0  0  0  0
    8.3381    0.2378   -4.1088 C   0  0  0  0  0  0
    7.4816   -0.6309   -3.4504 C   0  0  0  0  0  0
    7.1164   -0.3796   -2.1353 C   0  0  0  0  0  0
    7.0036   -1.7302   -4.0907 O   0  0  0  0  0  0
    7.4252   -1.9287   -5.4415 C   0  0  0  0  0  0
    9.6632    2.2123   -4.0959 O   0  0  0  0  0  0
   10.0039    1.8929   -5.4465 C   0  0  0  0  0  0
    6.0825    3.2959   -0.0377 C   0  0  0  0  0  0
   -1.2032   -0.6817    0.0104 N   0  0  0  0  0  0
    0.2286    3.8746    0.0199 H   0  0  0  0  0  0
    1.9082    3.9096    0.0044 H   0  0  0  0  0  0
    3.6224    3.0706   -0.0159 H   0  0  0  0  0  0
    5.5204   -0.7657   -0.0535 H   0  0  0  0  0  0
    7.9979    1.5468    0.4493 H   0  0  0  0  0  0
    7.0022    0.0714    0.4512 H   0  0  0  0  0  0
    8.8294    2.4813   -1.6284 H   0  0  0  0  0  0
    8.6264    0.0420   -5.1310 H   0  0  0  0  0  0
    6.4523   -1.0582   -1.6207 H   0  0  0  0  0  0
    6.9723   -2.8393   -5.8335 H   0  0  0  0  0  0
    7.1141   -1.0781   -6.0480 H   0  0  0  0  0  0
    8.5109   -2.0200   -5.4736 H   0  0  0  0  0  0
   10.6781    2.6532   -5.8406 H   0  0  0  0  0  0
   10.4953    0.9204   -5.4770 H   0  0  0  0  0  0
    9.0980    1.8614   -6.0520 H   0  0  0  0  0  0
    6.1176    3.6531    0.9915 H   0  0  0  0  0  0
    6.9909    3.5986   -0.5586 H   0  0  0  0  0  0
    5.2154    3.7232   -0.5413 H   0  0  0  0  0  0
   -2.0376   -0.1872    0.0213 H   0  0  0  0  0  0
   -1.2143   -1.6516    0.0053 H   0  0  0  0  0  0
  1  2  1  0  0  0
  1  6  2  0  0  0
  2  3  2  0  0  0
  2 25  1  0  0  0
  3  4  1  0  0  0
  4  5  2  0  0  0
  4 11  1  0  0  0
  5  6  1  0  0  0
  5  8  1  0  0  0
  6  7  1  0  0  0
  7 26  1  0  0  0
  7 27  1  0  0  0
  8  9  2  0  0  0
  8 28  1  0  0  0
  9 10  1  0  0  0
  9 12  1  0  0  0
 10 11  2  0  0  0
 10 29  1  0  0  0
 12 13  1  0  0  0
 12 24  1  0  0  0
 13 14  1  0  0  0
 13 30  1  0  0  0
 13 31  1  0  0  0
 14 15  1  0  0  0
 14 19  2  0  0  0
 15 16  2  0  0  0
 15 32  1  0  0  0
 16 17  1  0  0  0
 16 22  1  0  0  0
 17 18  2  0  0  0
 17 33  1  0  0  0
 18 19  1  0  0  0
 18 20  1  0  0  0
 19 34  1  0  0  0
 20 21  1  0  0  0
 21 35  1  0  0  0
 21 36  1  0  0  0
 21 37  1  0  0  0
 22 23  1  0  0  0
 23 38  1  0  0  0
 23 39  1  0  0  0
 23 40  1  0  0  0
 24 41  1  0  0  0
 24 42  1  0  0  0
 24 43  1  0  0  0
 25 44  1  0  0  0
 25 45  1  0  0  0
M  END
>  <Activity>
7.14267

>  <set_rl>
1

>  <Min_dist>
999.9

>  <Avg_dist>
999.9

>  <PC_uM>
0.076

>  <TG_uM>
0.031

>  <RL_uM>
0.072

$$$$
25-21
 Wcorina  11170919323D 1   1.00000     0.00000              
CORINA evaluation license 3.46 0067  05.08.2008
 42 44  0  0  0  0  0  0  0  0999 V2000
   -0.0160    1.3259    0.0093 N   0  0  0  0  0  0
    0.0021   -0.0041    0.0020 C   0  0  0  0  0  0
    1.1196   -0.7048   -0.0124 N   0  0  0  0  0  0
    2.3114   -0.0881   -0.0205 C   0  0  0  0  0  0
    2.3382    1.3279   -0.0131 C   0  0  0  0  0  0
    1.1072    2.0292    0.0024 C   0  0  0  0  0  0
    1.0785    3.4072    0.0096 N   0  0  0  0  0  0
    3.5707    1.9919   -0.0208 C   0  0  0  0  0  0
    4.7220    1.2213   -0.0355 C   0  0  0  0  0  0
    4.6188   -0.1712   -0.0421 C   0  0  0  0  0  0
    3.4531   -0.7762   -0.0346 N   0  0  0  0  0  0
    5.9799    1.8345   -0.0442 N   0  0  0  0  0  0
    7.1941    1.0150   -0.0597 C   0  0  0  0  0  0
    8.4053    1.9117   -0.0665 C   0  0  0  0  0  0
    9.0730    2.1617   -1.2498 C   0  0  0  0  0  0
   10.1873    2.9873   -1.2561 C   0  0  0  0  0  0
   10.6314    3.5620   -0.0743 C   0  0  0  0  0  0
    9.9639    3.3121    1.1086 C   0  0  0  0  0  0
    8.8461    2.4905    1.1141 C   0  0  0  0  0  0
    8.1855    2.2489    2.2779 O   0  0  0  0  0  0
    8.6949    2.8779    3.4556 C   0  0  0  0  0  0
   10.8448    3.2330   -2.4208 O   0  0  0  0  0  0
   11.9844    4.0926   -2.3535 C   0  0  0  0  0  0
   -1.2032   -0.6817    0.0104 N   0  0  0  0  0  0
    0.2286    3.8746    0.0199 H   0  0  0  0  0  0
    1.9082    3.9096    0.0044 H   0  0  0  0  0  0
    3.6224    3.0706   -0.0159 H   0  0  0  0  0  0
    5.5204   -0.7657   -0.0535 H   0  0  0  0  0  0
    6.0478    2.8021   -0.0399 H   0  0  0  0  0  0
    7.2162    0.3813    0.8269 H   0  0  0  0  0  0
    7.1995    0.3903   -0.9529 H   0  0  0  0  0  0
    8.7275    1.7139   -2.1699 H   0  0  0  0  0  0
   11.4994    4.2047   -0.0792 H   0  0  0  0  0  0
   10.3098    3.7593    2.0288 H   0  0  0  0  0  0
    8.0774    2.6024    4.3106 H   0  0  0  0  0  0
    9.7204    2.5509    3.6276 H   0  0  0  0  0  0
    8.6753    3.9601    3.3269 H   0  0  0  0  0  0
   11.6809    5.0694   -1.9768 H   0  0  0  0  0  0
   12.7271    3.6595   -1.6836 H   0  0  0  0  0  0
   12.4142    4.2046   -3.3489 H   0  0  0  0  0  0
   -2.0376   -0.1872    0.0213 H   0  0  0  0  0  0
   -1.2143   -1.6516    0.0053 H   0  0  0  0  0  0
  1  2  1  0  0  0
  1  6  2  0  0  0
  2  3  2  0  0  0
  2 24  1  0  0  0
  3  4  1  0  0  0
  4  5  2  0  0  0
  4 11  1  0  0  0
  5  6  1  0  0  0
  5  8  1  0  0  0
  6  7  1  0  0  0
  7 25  1  0  0  0
  7 26  1  0  0  0
  8  9  2  0  0  0
  8 27  1  0  0  0
  9 10  1  0  0  0
  9 12  1  0  0  0
 10 11  2  0  0  0
 10 28  1  0  0  0
 12 13  1  0  0  0
 12 29  1  0  0  0
 13 14  1  0  0  0
 13 30  1  0  0  0
 13 31  1  0  0  0
 14 15  1  0  0  0
 14 19  2  0  0  0
 15 16  2  0  0  0
 15 32  1  0  0  0
 16 17  1  0  0  0
 16 22  1  0  0  0
 17 18  2  0  0  0
 17 33  1  0  0  0
 18 19  1  0  0  0
 18 34  1  0  0  0
 19 20  1  0  0  0
 20 21  1  0  0  0
 21 35  1  0  0  0
 21 36  1  0  0  0
 21 37  1  0  0  0
 22 23  1  0  0  0
 23 38  1  0  0  0
 23 39  1  0  0  0
 23 40  1  0  0  0
 24 41  1  0  0  0
 24 42  1  0  0  0
M  END
>  <Activity>
6.45593

>  <set_rl>
1

>  <Min_dist>
999.9

>  <Avg_dist>
999.9

>  <PC_uM>
3.8

>  <TG_uM>
0.31

>  <RL_uM>
0.35

$$$$
25-23
 Wcorina  11170919323D 1   1.00000     0.00000              
CORINA evaluation license 3.46 0067  05.08.2008
 40 43  0  0  0  0  0  0  0  0999 V2000
   -0.0160    1.3259    0.0093 N   0  0  0  0  0  0
    0.0021   -0.0041    0.0020 C   0  0  0  0  0  0
    1.1196   -0.7048   -0.0124 N   0  0  0  0  0  0
    2.3114   -0.0881   -0.0205 C   0  0  0  0  0  0
    2.3382    1.3279   -0.0131 C   0  0  0  0  0  0
    1.1072    2.0292    0.0024 C   0  0  0  0  0  0
    1.0785    3.4072    0.0096 N   0  0  0  0  0  0
    3.5707    1.9919   -0.0208 C   0  0  0  0  0  0
    4.7220    1.2213   -0.0355 C   0  0  0  0  0  0
    4.6188   -0.1712   -0.0421 C   0  0  0  0  0  0
    3.4531   -0.7762   -0.0346 N   0  0  0  0  0  0
    5.9799    1.8345   -0.0442 N   0  0  0  0  0  0
    7.1941    1.0150   -0.0597 C   0  0  0  0  0  0
    8.4053    1.9117   -0.0665 C   0  0  0  0  0  0
    9.0659    2.1604   -1.2304 C   0  0  0  0  0  0
   10.1872    2.9871   -1.2563 C   0  0  0  0  0  0
   10.6547    3.5700   -0.1185 C   0  0  0  0  0  0
    9.9990    3.3367    1.1021 C   0  0  0  0  0  0
    8.8551    2.5000    1.1275 C   0  0  0  0  0  0
    8.1957    2.2714    2.3475 C   0  0  0  0  0  0
    8.6598    2.8586    3.4840 C   0  0  0  0  0  0
    9.7813    3.6858    3.4581 C   0  0  0  0  0  0
   10.4517    3.9212    2.2974 C   0  0  0  0  0  0
   -1.2032   -0.6817    0.0104 N   0  0  0  0  0  0
    0.2286    3.8746    0.0199 H   0  0  0  0  0  0
    1.9082    3.9096    0.0044 H   0  0  0  0  0  0
    3.6224    3.0706   -0.0159 H   0  0  0  0  0  0
    5.5204   -0.7657   -0.0535 H   0  0  0  0  0  0
    6.0478    2.8021   -0.0399 H   0  0  0  0  0  0
    7.2162    0.3813    0.8269 H   0  0  0  0  0  0
    7.1995    0.3903   -0.9529 H   0  0  0  0  0  0
    8.7159    1.7100   -2.1475 H   0  0  0  0  0  0
   10.6933    3.1678   -2.1932 H   0  0  0  0  0  0
   11.5252    4.2082   -0.1537 H   0  0  0  0  0  0
    7.3251    1.6333    2.3827 H   0  0  0  0  0  0
    8.1512    2.6812    4.4202 H   0  0  0  0  0  0
   10.1286    4.1398    4.3744 H   0  0  0  0  0  0
   11.3197    4.5639    2.2926 H   0  0  0  0  0  0
   -2.0376   -0.1872    0.0213 H   0  0  0  0  0  0
   -1.2143   -1.6516    0.0053 H   0  0  0  0  0  0
  1  2  1  0  0  0
  1  6  2  0  0  0
  2  3  2  0  0  0
  2 24  1  0  0  0
  3  4  1  0  0  0
  4  5  2  0  0  0
  4 11  1  0  0  0
  5  6  1  0  0  0
  5  8  1  0  0  0
  6  7  1  0  0  0
  7 25  1  0  0  0
  7 26  1  0  0  0
  8  9  2  0  0  0
  8 27  1  0  0  0
  9 10  1  0  0  0
  9 12  1  0  0  0
 10 11  2  0  0  0
 10 28  1  0  0  0
 12 13  1  0  0  0
 12 29  1  0  0  0
 13 14  1  0  0  0
 13 30  1  0  0  0
 13 31  1  0  0  0
 14 15  1  0  0  0
 14 19  2  0  0  0
 15 16  2  0  0  0
 15 32  1  0  0  0
 16 17  1  0  0  0
 16 33  1  0  0  0
 17 18  2  0  0  0
 17 34  1  0  0  0
 18 19  1  0  0  0
 18 23  1  0  0  0
 19 20  1  0  0  0
 20 21  2  0  0  0
 20 35  1  0  0  0
 21 22  1  0  0  0
 21 36  1  0  0  0
 22 23  2  0  0  0
 22 37  1  0  0  0
 23 38  1  0  0  0
 24 39  1  0  0  0
 24 40  1  0  0  0
M  END
>  <Activity>
6.61979

>  <set_rl>
1

>  <Min_dist>
999.9

>  <Avg_dist>
999.9

>  <PC_uM>
3.9

>  <TG_uM>
0.98

>  <RL_uM>
0.24

$$$$
25-24
 Wcorina  11170919323D 1   1.00000     0.00000              
CORINA evaluation license 3.46 0067  05.08.2008
 44 47  0  0  0  0  0  0  0  0999 V2000
   -0.0160    1.3259    0.0093 N   0  0  0  0  0  0
    0.0021   -0.0041    0.0020 C   0  0  0  0  0  0
    1.1196   -0.7048   -0.0124 N   0  0  0  0  0  0
    2.3114   -0.0881   -0.0205 C   0  0  0  0  0  0
    2.3382    1.3279   -0.0131 C   0  0  0  0  0  0
    1.1072    2.0292    0.0024 C   0  0  0  0  0  0
    1.0785    3.4072    0.0096 N   0  0  0  0  0  0
    3.5707    1.9919   -0.0208 C   0  0  0  0  0  0
    4.7220    1.2213   -0.0355 C   0  0  0  0  0  0
    4.6188   -0.1712   -0.0421 C   0  0  0  0  0  0
    3.4531   -0.7762   -0.0346 N   0  0  0  0  0  0
    5.9799    1.8345   -0.0442 N   0  0  0  0  0  0
    7.1941    1.0150   -0.0597 C   0  0  0  0  0  0
    8.4053    1.9117   -0.0665 C   0  0  0  0  0  0
    9.0652    2.1597   -1.2315 C   0  0  0  0  0  0
   10.1857    2.9851   -1.2605 C   0  0  0  0  0  0
   10.6561    3.5710   -0.1189 C   0  0  0  0  0  0
    9.9974    3.3362    1.1051 C   0  0  0  0  0  0
    8.8541    2.4994    1.1284 C   0  0  0  0  0  0
    8.1937    2.2693    2.3476 C   0  0  0  0  0  0
    8.6569    2.8555    3.4853 C   0  0  0  0  0  0
    9.7780    3.6828    3.4607 C   0  0  0  0  0  0
   10.4488    3.9196    2.2999 C   0  0  0  0  0  0
   11.7508    4.3735   -0.1633 O   0  0  0  0  0  0
   12.3645    4.5635   -1.4397 C   0  0  0  0  0  0
   -1.2032   -0.6817    0.0104 N   0  0  0  0  0  0
    0.2286    3.8746    0.0199 H   0  0  0  0  0  0
    1.9082    3.9096    0.0044 H   0  0  0  0  0  0
    3.6224    3.0706   -0.0159 H   0  0  0  0  0  0
    5.5204   -0.7657   -0.0535 H   0  0  0  0  0  0
    6.0478    2.8021   -0.0399 H   0  0  0  0  0  0
    7.2162    0.3813    0.8269 H   0  0  0  0  0  0
    7.1995    0.3903   -0.9529 H   0  0  0  0  0  0
    8.7139    1.7085   -2.1477 H   0  0  0  0  0  0
   10.6906    3.1648   -2.1981 H   0  0  0  0  0  0
    7.3232    1.6310    2.3814 H   0  0  0  0  0  0
    8.1477    2.6771    4.4209 H   0  0  0  0  0  0
   10.1249    4.1361    4.3775 H   0  0  0  0  0  0
   11.3167    4.5623    2.2960 H   0  0  0  0  0  0
   12.6910    3.6007   -1.8328 H   0  0  0  0  0  0
   11.6453    5.0110   -2.1257 H   0  0  0  0  0  0
   13.2254    5.2237   -1.3342 H   0  0  0  0  0  0
   -2.0376   -0.1872    0.0213 H   0  0  0  0  0  0
   -1.2143   -1.6516    0.0053 H   0  0  0  0  0  0
  1  2  1  0  0  0
  1  6  2  0  0  0
  2  3  2  0  0  0
  2 26  1  0  0  0
  3  4  1  0  0  0
  4  5  2  0  0  0
  4 11  1  0  0  0
  5  6  1  0  0  0
  5  8  1  0  0  0
  6  7  1  0  0  0
  7 27  1  0  0  0
  7 28  1  0  0  0
  8  9  2  0  0  0
  8 29  1  0  0  0
  9 10  1  0  0  0
  9 12  1  0  0  0
 10 11  2  0  0  0
 10 30  1  0  0  0
 12 13  1  0  0  0
 12 31  1  0  0  0
 13 14  1  0  0  0
 13 32  1  0  0  0
 13 33  1  0  0  0
 14 15  1  0  0  0
 14 19  2  0  0  0
 15 16  2  0  0  0
 15 34  1  0  0  0
 16 17  1  0  0  0
 16 35  1  0  0  0
 17 18  2  0  0  0
 17 24  1  0  0  0
 18 19  1  0  0  0
 18 23  1  0  0  0
 19 20  1  0  0  0
 20 21  2  0  0  0
 20 36  1  0  0  0
 21 22  1  0  0  0
 21 37  1  0  0  0
 22 23  2  0  0  0
 22 38  1  0  0  0
 23 39  1  0  0  0
 24 25  1  0  0  0
 25 40  1  0  0  0
 25 41  1  0  0  0
 25 42  1  0  0  0
 26 43  1  0  0  0
 26 44  1  0  0  0
M  END
>  <Activity>
6.36653

>  <set_rl>
1

>  <Min_dist>
999.9

>  <Avg_dist>
999.9

>  <PC_uM>
8.2

>  <TG_uM>
0.38

>  <RL_uM>
0.43

$$$$
25-25
 Wcorina  11170919323D 1   1.00000     0.00000              
CORINA evaluation license 3.46 0067  05.08.2008
 44 47  0  0  0  0  0  0  0  0999 V2000
   -0.0160    1.3259    0.0093 N   0  0  0  0  0  0
    0.0021   -0.0041    0.0020 C   0  0  0  0  0  0
    1.1196   -0.7048   -0.0124 N   0  0  0  0  0  0
    2.3114   -0.0881   -0.0205 C   0  0  0  0  0  0
    2.3382    1.3279   -0.0131 C   0  0  0  0  0  0
    1.1072    2.0292    0.0024 C   0  0  0  0  0  0
    1.0785    3.4072    0.0096 N   0  0  0  0  0  0
    3.5707    1.9919   -0.0208 C   0  0  0  0  0  0
    4.7220    1.2213   -0.0355 C   0  0  0  0  0  0
    4.6188   -0.1712   -0.0421 C   0  0  0  0  0  0
    3.4531   -0.7762   -0.0346 N   0  0  0  0  0  0
    5.9799    1.8345   -0.0442 N   0  0  0  0  0  0
    7.1941    1.0150   -0.0597 C   0  0  0  0  0  0
    8.4053    1.9117   -0.0665 C   0  0  0  0  0  0
    8.9684    2.3145    1.1111 C   0  0  0  0  0  0
   10.0921    3.1462    1.1213 C   0  0  0  0  0  0
   10.6542    3.5763   -0.0403 C   0  0  0  0  0  0
   10.1012    3.1810   -1.2705 C   0  0  0  0  0  0
    8.9649    2.3332   -1.2834 C   0  0  0  0  0  0
    8.4165    1.9346   -2.5149 C   0  0  0  0  0  0
    8.9851    2.3619   -3.6751 C   0  0  0  0  0  0
   10.1058    3.1904   -3.6623 C   0  0  0  0  0  0
   10.6567    3.6063   -2.4892 C   0  0  0  0  0  0
    8.4291    1.9016    2.2881 O   0  0  0  0  0  0
    9.0618    2.3556    3.4862 C   0  0  0  0  0  0
   -1.2032   -0.6817    0.0104 N   0  0  0  0  0  0
    0.2286    3.8746    0.0199 H   0  0  0  0  0  0
    1.9082    3.9096    0.0044 H   0  0  0  0  0  0
    3.6224    3.0706   -0.0159 H   0  0  0  0  0  0
    5.5204   -0.7657   -0.0535 H   0  0  0  0  0  0
    6.0478    2.8021   -0.0399 H   0  0  0  0  0  0
    7.2162    0.3813    0.8269 H   0  0  0  0  0  0
    7.1995    0.3903   -0.9529 H   0  0  0  0  0  0
   10.5197    3.4519    2.0647 H   0  0  0  0  0  0
   11.5217    4.2192   -0.0174 H   0  0  0  0  0  0
    7.5487    1.2922   -2.5402 H   0  0  0  0  0  0
    8.5619    2.0541   -4.6198 H   0  0  0  0  0  0
   10.5379    3.5150   -4.5974 H   0  0  0  0  0  0
   11.5243    4.2495   -2.4951 H   0  0  0  0  0  0
    8.5330    1.9543    4.3508 H   0  0  0  0  0  0
   10.0967    2.0140    3.5025 H   0  0  0  0  0  0
    9.0382    3.4448    3.5193 H   0  0  0  0  0  0
   -2.0376   -0.1872    0.0213 H   0  0  0  0  0  0
   -1.2143   -1.6516    0.0053 H   0  0  0  0  0  0
  1  2  1  0  0  0
  1  6  2  0  0  0
  2  3  2  0  0  0
  2 26  1  0  0  0
  3  4  1  0  0  0
  4  5  2  0  0  0
  4 11  1  0  0  0
  5  6  1  0  0  0
  5  8  1  0  0  0
  6  7  1  0  0  0
  7 27  1  0  0  0
  7 28  1  0  0  0
  8  9  2  0  0  0
  8 29  1  0  0  0
  9 10  1  0  0  0
  9 12  1  0  0  0
 10 11  2  0  0  0
 10 30  1  0  0  0
 12 13  1  0  0  0
 12 31  1  0  0  0
 13 14  1  0  0  0
 13 32  1  0  0  0
 13 33  1  0  0  0
 14 15  1  0  0  0
 14 19  2  0  0  0
 15 16  2  0  0  0
 15 24  1  0  0  0
 16 17  1  0  0  0
 16 34  1  0  0  0
 17 18  2  0  0  0
 17 35  1  0  0  0
 18 19  1  0  0  0
 18 23  1  0  0  0
 19 20  1  0  0  0
 20 21  2  0  0  0
 20 36  1  0  0  0
 21 22  1  0  0  0
 21 37  1  0  0  0
 22 23  2  0  0  0
 22 38  1  0  0  0
 23 39  1  0  0  0
 24 25  1  0  0  0
 25 40  1  0  0  0
 25 41  1  0  0  0
 25 42  1  0  0  0
 26 43  1  0  0  0
 26 44  1  0  0  0
M  END
>  <Activity>
6.4318

>  <set_rl>
1

>  <Min_dist>
999.9

>  <Avg_dist>
999.9

>  <PC_uM>
15.4

>  <TG_uM>
0.71

>  <RL_uM>
0.37

$$$$
26-10
 Wcorina  11170919323D 1   1.00000     0.00000              
CORINA evaluation license 3.46 0067  05.08.2008
 51 54  0  0  0  0  0  0  0  0999 V2000
    0.1451    1.3345   -0.2391 N   0  0  0  0  0  0
    0.1606    0.0048   -0.2565 C   0  0  0  0  0  0
    1.2034   -0.7042    0.1331 N   0  0  0  0  0  0
    2.3148   -0.0963    0.5720 C   0  0  0  0  0  0
    2.3420    1.3195    0.6069 C   0  0  0  0  0  0
    1.1939    2.0298    0.1772 C   0  0  0  0  0  0
    1.1685    3.4071    0.1912 N   0  0  0  0  0  0
    3.4938    1.9718    1.0626 C   0  0  0  0  0  0
    4.5556    1.2020    1.4590 C   0  0  0  0  0  0
    4.4660   -0.1836    1.4005 C   0  0  0  0  0  0
    3.3816   -0.7895    0.9716 N   0  0  0  0  0  0
    5.8183    1.8566    1.9570 C   0  0  0  0  0  0
    5.6398    2.2632    3.3531 N   0  0  0  0  0  0
    6.6840    2.8970    4.0365 C   0  0  0  0  0  0
    7.8864    3.1400    3.3935 C   0  0  0  0  0  0
    8.9236    3.7711    4.0772 C   0  0  0  0  0  0
    8.7480    4.1557    5.4052 C   0  0  0  0  0  0
    7.5483    3.9114    6.0429 C   0  0  0  0  0  0
    6.5128    3.2894    5.3632 C   0  0  0  0  0  0
    5.3304    3.0564    5.9930 O   0  0  0  0  0  0
    5.2239    3.4846    7.3522 C   0  0  0  0  0  0
   10.2135    4.0330    3.3925 C   0  0  0  0  0  0
   11.2519    4.6640    4.0747 C   0  0  0  0  0  0
   12.4497    4.9051    3.4329 C   0  0  0  0  0  0
   12.6203    4.5221    2.1147 C   0  0  0  0  0  0
   11.5928    3.8957    1.4326 C   0  0  0  0  0  0
   10.3931    3.6436    2.0666 C   0  0  0  0  0  0
    3.5638    3.4762    1.1150 C   0  0  0  0  0  0
   -0.9640   -0.6635   -0.7014 N   0  0  0  0  0  0
    1.5508    3.8917    0.9394 H   0  0  0  0  0  0
    0.7683    3.8924   -0.5473 H   0  0  0  0  0  0
    5.3105   -0.7785    1.7157 H   0  0  0  0  0  0
    6.6456    1.1503    1.8873 H   0  0  0  0  0  0
    6.0373    2.7338    1.3482 H   0  0  0  0  0  0
    4.7978    2.0933    3.8038 H   0  0  0  0  0  0
    8.0199    2.8406    2.3644 H   0  0  0  0  0  0
    9.5513    4.6449    5.9360 H   0  0  0  0  0  0
    7.4147    4.2100    7.0722 H   0  0  0  0  0  0
    5.9802    2.9790    7.9527 H   0  0  0  0  0  0
    5.3775    4.5624    7.4067 H   0  0  0  0  0  0
    4.2329    3.2390    7.7339 H   0  0  0  0  0  0
   11.1195    4.9642    5.1037 H   0  0  0  0  0  0
   13.2551    5.3941    3.9606 H   0  0  0  0  0  0
   13.5591    4.7130    1.6162 H   0  0  0  0  0  0
   11.7311    3.5994    0.4033 H   0  0  0  0  0  0
    9.5933    3.1499    1.5347 H   0  0  0  0  0  0
    3.0931    3.8301    2.0322 H   0  0  0  0  0  0
    4.6068    3.7923    1.0967 H   0  0  0  0  0  0
    3.0422    3.8945    0.2542 H   0  0  0  0  0  0
   -1.7422   -0.1630   -0.9924 H   0  0  0  0  0  0
   -0.9752   -1.6332   -0.7228 H   0  0  0  0  0  0
  1  2  1  0  0  0
  1  6  2  0  0  0
  2  3  2  0  0  0
  2 29  1  0  0  0
  3  4  1  0  0  0
  4  5  2  0  0  0
  4 11  1  0  0  0
  5  6  1  0  0  0
  5  8  1  0  0  0
  6  7  1  0  0  0
  7 30  1  0  0  0
  7 31  1  0  0  0
  8  9  2  0  0  0
  8 28  1  0  0  0
  9 10  1  0  0  0
  9 12  1  0  0  0
 10 11  2  0  0  0
 10 32  1  0  0  0
 12 13  1  0  0  0
 12 33  1  0  0  0
 12 34  1  0  0  0
 13 14  1  0  0  0
 13 35  1  0  0  0
 14 15  1  0  0  0
 14 19  2  0  0  0
 15 16  2  0  0  0
 15 36  1  0  0  0
 16 17  1  0  0  0
 16 22  1  0  0  0
 17 18  2  0  0  0
 17 37  1  0  0  0
 18 19  1  0  0  0
 18 38  1  0  0  0
 19 20  1  0  0  0
 20 21  1  0  0  0
 21 39  1  0  0  0
 21 40  1  0  0  0
 21 41  1  0  0  0
 22 23  1  0  0  0
 22 27  2  0  0  0
 23 24  2  0  0  0
 23 42  1  0  0  0
 24 25  1  0  0  0
 24 43  1  0  0  0
 25 26  2  0  0  0
 25 44  1  0  0  0
 26 27  1  0  0  0
 26 45  1  0  0  0
 27 46  1  0  0  0
 28 47  1  0  0  0
 28 48  1  0  0  0
 28 49  1  0  0  0
 29 50  1  0  0  0
 29 51  1  0  0  0
M  END
>  <Activity>
6.35655

>  <set_rl>
1

>  <Min_dist>
999.9

>  <Avg_dist>
999.9

>  <PC_uM>
0.64

>  <TG_uM>
0.068

>  <RL_uM>
0.44

$$$$
27-6
 Wcorina  11170919323D 1   1.00000     0.00000              
CORINA evaluation license 3.46 0067  05.08.2008
 41 43  0  0  0  0  0  0  0  0999 V2000
    0.1451    1.3345   -0.2391 N   0  0  0  0  0  0
    0.1606    0.0048   -0.2565 C   0  0  0  0  0  0
    1.2034   -0.7042    0.1331 N   0  0  0  0  0  0
    2.3148   -0.0963    0.5720 C   0  0  0  0  0  0
    2.3420    1.3195    0.6069 C   0  0  0  0  0  0
    1.1939    2.0298    0.1772 C   0  0  0  0  0  0
    1.1685    3.4071    0.1912 N   0  0  0  0  0  0
    3.4938    1.9718    1.0626 C   0  0  0  0  0  0
    4.5556    1.2020    1.4590 C   0  0  0  0  0  0
    4.4660   -0.1836    1.4005 C   0  0  0  0  0  0
    3.3816   -0.7895    0.9716 N   0  0  0  0  0  0
    5.8183    1.8566    1.9570 C   0  0  0  0  0  0
    5.6398    2.2632    3.3531 N   0  0  0  0  0  0
    6.6840    2.8970    4.0364 C   0  0  0  0  0  0
    7.8889    3.1410    3.3936 C   0  0  0  0  0  0
    8.9186    3.7669    4.0706 C   0  0  0  0  0  0
    8.7512    4.1511    5.3881 C   0  0  0  0  0  0
    7.5530    3.9111    6.0354 C   0  0  0  0  0  0
    6.5142    3.2896    5.3623 C   0  0  0  0  0  0
    5.3332    3.0580    5.9960 O   0  0  0  0  0  0
    5.2310    3.4878    7.3550 C   0  0  0  0  0  0
    3.5638    3.4762    1.1150 C   0  0  0  0  0  0
   -0.9640   -0.6635   -0.7014 N   0  0  0  0  0  0
    1.5508    3.8917    0.9394 H   0  0  0  0  0  0
    0.7683    3.8924   -0.5473 H   0  0  0  0  0  0
    5.3105   -0.7785    1.7157 H   0  0  0  0  0  0
    6.6456    1.1503    1.8873 H   0  0  0  0  0  0
    6.0373    2.7338    1.3482 H   0  0  0  0  0  0
    4.7978    2.0933    3.8038 H   0  0  0  0  0  0
    8.0224    2.8416    2.3645 H   0  0  0  0  0  0
    9.8563    3.9561    3.5693 H   0  0  0  0  0  0
    9.5586    4.6396    5.9134 H   0  0  0  0  0  0
    7.4256    4.2125    7.0646 H   0  0  0  0  0  0
    4.2410    3.2432    7.7399 H   0  0  0  0  0  0
    5.9887    2.9824    7.9538 H   0  0  0  0  0  0
    5.3853    4.5655    7.4078 H   0  0  0  0  0  0
    3.0931    3.8301    2.0322 H   0  0  0  0  0  0
    4.6068    3.7923    1.0967 H   0  0  0  0  0  0
    3.0422    3.8945    0.2542 H   0  0  0  0  0  0
   -1.7422   -0.1630   -0.9924 H   0  0  0  0  0  0
   -0.9752   -1.6332   -0.7228 H   0  0  0  0  0  0
  1  2  1  0  0  0
  1  6  2  0  0  0
  2  3  2  0  0  0
  2 23  1  0  0  0
  3  4  1  0  0  0
  4  5  2  0  0  0
  4 11  1  0  0  0
  5  6  1  0  0  0
  5  8  1  0  0  0
  6  7  1  0  0  0
  7 24  1  0  0  0
  7 25  1  0  0  0
  8  9  2  0  0  0
  8 22  1  0  0  0
  9 10  1  0  0  0
  9 12  1  0  0  0
 10 11  2  0  0  0
 10 26  1  0  0  0
 12 13  1  0  0  0
 12 27  1  0  0  0
 12 28  1  0  0  0
 13 14  1  0  0  0
 13 29  1  0  0  0
 14 15  1  0  0  0
 14 19  2  0  0  0
 15 16  2  0  0  0
 15 30  1  0  0  0
 16 17  1  0  0  0
 16 31  1  0  0  0
 17 18  2  0  0  0
 17 32  1  0  0  0
 18 19  1  0  0  0
 18 33  1  0  0  0
 19 20  1  0  0  0
 20 21  1  0  0  0
 21 34  1  0  0  0
 21 35  1  0  0  0
 21 36  1  0  0  0
 22 37  1  0  0  0
 22 38  1  0  0  0
 22 39  1  0  0  0
 23 40  1  0  0  0
 23 41  1  0  0  0
M  END
>  <Activity>
6.77211

>  <set_rl>
1

>  <Min_dist>
999.9

>  <Avg_dist>
999.9

>  <PC_uM>
0.117

>  <TG_uM>
0.023

>  <RL_uM>
0.169

$$$$
27-7
 Wcorina  11170919323D 1   1.00000     0.00000              
CORINA evaluation license 3.46 0067  05.08.2008
 41 43  0  0  0  0  0  0  0  0999 V2000
    0.1451    1.3345   -0.2391 N   0  0  0  0  0  0
    0.1606    0.0048   -0.2565 C   0  0  0  0  0  0
    1.2034   -0.7042    0.1331 N   0  0  0  0  0  0
    2.3148   -0.0963    0.5720 C   0  0  0  0  0  0
    2.3420    1.3195    0.6069 C   0  0  0  0  0  0
    1.1939    2.0298    0.1772 C   0  0  0  0  0  0
    1.1685    3.4071    0.1912 N   0  0  0  0  0  0
    3.4938    1.9718    1.0626 C   0  0  0  0  0  0
    4.5556    1.2020    1.4590 C   0  0  0  0  0  0
    4.4660   -0.1836    1.4005 C   0  0  0  0  0  0
    3.3816   -0.7895    0.9716 N   0  0  0  0  0  0
    5.8183    1.8566    1.9570 C   0  0  0  0  0  0
    5.6398    2.2632    3.3531 N   0  0  0  0  0  0
    6.6818    2.8956    4.0350 C   0  0  0  0  0  0
    7.8884    3.1396    3.3901 C   0  0  0  0  0  0
    8.9185    3.7654    4.0645 C   0  0  0  0  0  0
    8.7527    4.1501    5.3817 C   0  0  0  0  0  0
    7.5500    3.9091    6.0308 C   0  0  0  0  0  0
    6.5116    3.2864    5.3558 C   0  0  0  0  0  0
    7.3887    4.2876    7.3259 O   0  0  0  0  0  0
    8.4988    4.9286    7.9576 C   0  0  0  0  0  0
    3.5638    3.4762    1.1150 C   0  0  0  0  0  0
   -0.9640   -0.6635   -0.7014 N   0  0  0  0  0  0
    1.5508    3.8917    0.9394 H   0  0  0  0  0  0
    0.7683    3.8924   -0.5473 H   0  0  0  0  0  0
    5.3105   -0.7785    1.7157 H   0  0  0  0  0  0
    6.6456    1.1503    1.8873 H   0  0  0  0  0  0
    6.0373    2.7338    1.3482 H   0  0  0  0  0  0
    4.7978    2.0933    3.8038 H   0  0  0  0  0  0
    8.0208    2.8394    2.3611 H   0  0  0  0  0  0
    9.8555    3.9542    3.5618 H   0  0  0  0  0  0
    9.5603    4.6386    5.9065 H   0  0  0  0  0  0
    5.5736    3.1018    5.8582 H   0  0  0  0  0  0
    8.2374    5.1779    8.9859 H   0  0  0  0  0  0
    9.3569    4.2565    7.9535 H   0  0  0  0  0  0
    8.7488    5.8403    7.4150 H   0  0  0  0  0  0
    3.0931    3.8301    2.0322 H   0  0  0  0  0  0
    4.6068    3.7923    1.0967 H   0  0  0  0  0  0
    3.0422    3.8945    0.2542 H   0  0  0  0  0  0
   -1.7422   -0.1630   -0.9924 H   0  0  0  0  0  0
   -0.9752   -1.6332   -0.7228 H   0  0  0  0  0  0
  1  2  1  0  0  0
  1  6  2  0  0  0
  2  3  2  0  0  0
  2 23  1  0  0  0
  3  4  1  0  0  0
  4  5  2  0  0  0
  4 11  1  0  0  0
  5  6  1  0  0  0
  5  8  1  0  0  0
  6  7  1  0  0  0
  7 24  1  0  0  0
  7 25  1  0  0  0
  8  9  2  0  0  0
  8 22  1  0  0  0
  9 10  1  0  0  0
  9 12  1  0  0  0
 10 11  2  0  0  0
 10 26  1  0  0  0
 12 13  1  0  0  0
 12 27  1  0  0  0
 12 28  1  0  0  0
 13 14  1  0  0  0
 13 29  1  0  0  0
 14 15  1  0  0  0
 14 19  2  0  0  0
 15 16  2  0  0  0
 15 30  1  0  0  0
 16 17  1  0  0  0
 16 31  1  0  0  0
 17 18  2  0  0  0
 17 32  1  0  0  0
 18 19  1  0  0  0
 18 20  1  0  0  0
 19 33  1  0  0  0
 20 21  1  0  0  0
 21 34  1  0  0  0
 21 35  1  0  0  0
 21 36  1  0  0  0
 22 37  1  0  0  0
 22 38  1  0  0  0
 22 39  1  0  0  0
 23 40  1  0  0  0
 23 41  1  0  0  0
M  END
>  <Activity>
7.09637

>  <set_rl>
1

>  <Min_dist>
999.9

>  <Avg_dist>
999.9

>  <PC_uM>
0.0689

>  <TG_uM>
0.0074

>  <RL_uM>
0.0801

$$$$
27-9
 Wcorina  11170919323D 1   1.00000     0.00000              
CORINA evaluation license 3.46 0067  05.08.2008
 37 39  0  0  0  0  0  0  0  0999 V2000
    0.1451    1.3345   -0.2391 N   0  0  0  0  0  0
    0.1606    0.0048   -0.2565 C   0  0  0  0  0  0
    1.2034   -0.7042    0.1331 N   0  0  0  0  0  0
    2.3148   -0.0963    0.5720 C   0  0  0  0  0  0
    2.3420    1.3195    0.6069 C   0  0  0  0  0  0
    1.1939    2.0298    0.1772 C   0  0  0  0  0  0
    1.1685    3.4071    0.1912 N   0  0  0  0  0  0
    3.4938    1.9718    1.0626 C   0  0  0  0  0  0
    4.5556    1.2020    1.4590 C   0  0  0  0  0  0
    4.4660   -0.1836    1.4005 C   0  0  0  0  0  0
    3.3816   -0.7895    0.9716 N   0  0  0  0  0  0
    5.8183    1.8566    1.9570 C   0  0  0  0  0  0
    5.6398    2.2632    3.3531 N   0  0  0  0  0  0
    6.6824    2.8960    4.0354 C   0  0  0  0  0  0
    7.8885    3.1401    3.3916 C   0  0  0  0  0  0
    8.9170    3.7657    4.0687 C   0  0  0  0  0  0
    8.7476    4.1487    5.3867 C   0  0  0  0  0  0
    7.5484    3.9075    6.0314 C   0  0  0  0  0  0
    6.5128    3.2876    5.3581 C   0  0  0  0  0  0
    5.0047    2.9919    6.1656 Cl  0  0  0  0  0  0
    3.5638    3.4762    1.1150 C   0  0  0  0  0  0
   -0.9640   -0.6635   -0.7014 N   0  0  0  0  0  0
    1.5508    3.8917    0.9394 H   0  0  0  0  0  0
    0.7683    3.8924   -0.5473 H   0  0  0  0  0  0
    5.3105   -0.7785    1.7157 H   0  0  0  0  0  0
    6.6456    1.1503    1.8873 H   0  0  0  0  0  0
    6.0373    2.7338    1.3482 H   0  0  0  0  0  0
    4.7978    2.0933    3.8038 H   0  0  0  0  0  0
    8.0222    2.8408    2.3625 H   0  0  0  0  0  0
    9.8551    3.9556    3.5683 H   0  0  0  0  0  0
    9.5540    4.6370    5.9137 H   0  0  0  0  0  0
    7.4195    4.2076    7.0609 H   0  0  0  0  0  0
    3.0931    3.8301    2.0322 H   0  0  0  0  0  0
    4.6068    3.7923    1.0967 H   0  0  0  0  0  0
    3.0422    3.8945    0.2542 H   0  0  0  0  0  0
   -1.7422   -0.1630   -0.9924 H   0  0  0  0  0  0
   -0.9752   -1.6332   -0.7228 H   0  0  0  0  0  0
  1  2  1  0  0  0
  1  6  2  0  0  0
  2  3  2  0  0  0
  2 22  1  0  0  0
  3  4  1  0  0  0
  4  5  2  0  0  0
  4 11  1  0  0  0
  5  6  1  0  0  0
  5  8  1  0  0  0
  6  7  1  0  0  0
  7 23  1  0  0  0
  7 24  1  0  0  0
  8  9  2  0  0  0
  8 21  1  0  0  0
  9 10  1  0  0  0
  9 12  1  0  0  0
 10 11  2  0  0  0
 10 25  1  0  0  0
 12 13  1  0  0  0
 12 26  1  0  0  0
 12 27  1  0  0  0
 13 14  1  0  0  0
 13 28  1  0  0  0
 14 15  1  0  0  0
 14 19  2  0  0  0
 15 16  2  0  0  0
 15 29  1  0  0  0
 16 17  1  0  0  0
 16 30  1  0  0  0
 17 18  2  0  0  0
 17 31  1  0  0  0
 18 19  1  0  0  0
 18 32  1  0  0  0
 19 20  1  0  0  0
 21 33  1  0  0  0
 21 34  1  0  0  0
 21 35  1  0  0  0
 22 36  1  0  0  0
 22 37  1  0  0  0
M  END
>  <Activity>
7.05552

>  <set_rl>
1

>  <Min_dist>
999.9

>  <Avg_dist>
999.9

>  <PC_uM>
0.047

>  <TG_uM>
0.0071

>  <RL_uM>
0.088

$$$$
27-10
 Wcorina  11170919323D 1   1.00000     0.00000              
CORINA evaluation license 3.46 0067  05.08.2008
 37 39  0  0  0  0  0  0  0  0999 V2000
    0.1451    1.3345   -0.2391 N   0  0  0  0  0  0
    0.1606    0.0048   -0.2565 C   0  0  0  0  0  0
    1.2034   -0.7042    0.1331 N   0  0  0  0  0  0
    2.3148   -0.0963    0.5720 C   0  0  0  0  0  0
    2.3420    1.3195    0.6069 C   0  0  0  0  0  0
    1.1939    2.0298    0.1772 C   0  0  0  0  0  0
    1.1685    3.4071    0.1912 N   0  0  0  0  0  0
    3.4938    1.9718    1.0626 C   0  0  0  0  0  0
    4.5556    1.2020    1.4590 C   0  0  0  0  0  0
    4.4660   -0.1836    1.4005 C   0  0  0  0  0  0
    3.3816   -0.7895    0.9716 N   0  0  0  0  0  0
    5.8183    1.8566    1.9570 C   0  0  0  0  0  0
    5.6398    2.2632    3.3531 N   0  0  0  0  0  0
    6.6818    2.8957    4.0350 C   0  0  0  0  0  0
    6.5140    3.2819    5.3590 C   0  0  0  0  0  0
    7.5458    3.9070    6.0309 C   0  0  0  0  0  0
    8.7456    4.1495    5.3876 C   0  0  0  0  0  0
    8.9166    3.7667    4.0688 C   0  0  0  0  0  0
    7.8897    3.1346    3.3928 C   0  0  0  0  0  0
   10.4242    4.0742    3.2648 Cl  0  0  0  0  0  0
    3.5638    3.4762    1.1150 C   0  0  0  0  0  0
   -0.9640   -0.6635   -0.7014 N   0  0  0  0  0  0
    1.5508    3.8917    0.9394 H   0  0  0  0  0  0
    0.7683    3.8924   -0.5473 H   0  0  0  0  0  0
    5.3105   -0.7785    1.7157 H   0  0  0  0  0  0
    6.6456    1.1503    1.8873 H   0  0  0  0  0  0
    6.0373    2.7338    1.3482 H   0  0  0  0  0  0
    4.7978    2.0933    3.8038 H   0  0  0  0  0  0
    5.5771    3.0937    5.8623 H   0  0  0  0  0  0
    7.4154    4.2073    7.0601 H   0  0  0  0  0  0
    9.5508    4.6389    5.9154 H   0  0  0  0  0  0
    8.0249    2.8312    2.3651 H   0  0  0  0  0  0
    3.0931    3.8301    2.0322 H   0  0  0  0  0  0
    4.6068    3.7923    1.0967 H   0  0  0  0  0  0
    3.0422    3.8945    0.2542 H   0  0  0  0  0  0
   -1.7422   -0.1630   -0.9924 H   0  0  0  0  0  0
   -0.9752   -1.6332   -0.7228 H   0  0  0  0  0  0
  1  2  1  0  0  0
  1  6  2  0  0  0
  2  3  2  0  0  0
  2 22  1  0  0  0
  3  4  1  0  0  0
  4  5  2  0  0  0
  4 11  1  0  0  0
  5  6  1  0  0  0
  5  8  1  0  0  0
  6  7  1  0  0  0
  7 23  1  0  0  0
  7 24  1  0  0  0
  8  9  2  0  0  0
  8 21  1  0  0  0
  9 10  1  0  0  0
  9 12  1  0  0  0
 10 11  2  0  0  0
 10 25  1  0  0  0
 12 13  1  0  0  0
 12 26  1  0  0  0
 12 27  1  0  0  0
 13 14  1  0  0  0
 13 28  1  0  0  0
 14 15  1  0  0  0
 14 19  2  0  0  0
 15 16  2  0  0  0
 15 29  1  0  0  0
 16 17  1  0  0  0
 16 30  1  0  0  0
 17 18  2  0  0  0
 17 31  1  0  0  0
 18 19  1  0  0  0
 18 20  1  0  0  0
 19 32  1  0  0  0
 21 33  1  0  0  0
 21 34  1  0  0  0
 21 35  1  0  0  0
 22 36  1  0  0  0
 22 37  1  0  0  0
M  END
>  <Activity>
7.4318

>  <set_rl>
1

>  <Min_dist>
999.9

>  <Avg_dist>
999.9

>  <PC_uM>
0.023

>  <TG_uM>
0.011

>  <RL_uM>
0.037

$$$$
27-13
 Wcorina  11170919323D 1   1.00000     0.00000              
CORINA evaluation license 3.46 0067  05.08.2008
 44 46  0  0  0  0  0  0  0  0999 V2000
    0.1104    1.3327   -0.2494 N   0  0  0  0  0  0
    0.1273    0.0031   -0.2664 C   0  0  0  0  0  0
    1.1709   -0.7048    0.1231 N   0  0  0  0  0  0
    2.2818   -0.0956    0.5614 C   0  0  0  0  0  0
    2.3076    1.3202    0.5959 C   0  0  0  0  0  0
    1.1587    2.0293    0.1663 C   0  0  0  0  0  0
    1.1319    3.4065    0.1799 N   0  0  0  0  0  0
    3.4588    1.9738    1.0510 C   0  0  0  0  0  0
    4.5216    1.2052    1.4473 C   0  0  0  0  0  0
    4.4334   -0.1805    1.3893 C   0  0  0  0  0  0
    3.3494   -0.7876    0.9609 N   0  0  0  0  0  0
    5.7838    1.8612    1.9448 C   0  0  0  0  0  0
    5.6052    2.2681    3.3408 N   0  0  0  0  0  0
    5.9347    1.3865    4.3727 C   0  0  0  0  0  0
    6.4319    0.1230    4.0764 C   0  0  0  0  0  0
    6.7580   -0.7484    5.0970 C   0  0  0  0  0  0
    6.5906   -0.3670    6.4150 C   0  0  0  0  0  0
    6.0945    0.8933    6.7169 C   0  0  0  0  0  0
    5.7713    1.7731    5.6957 C   0  0  0  0  0  0
    5.9300    1.2665    8.0133 O   0  0  0  0  0  0
    6.2882    0.3113    9.0138 C   0  0  0  0  0  0
    5.0811    3.5997    3.6543 C   0  0  0  0  0  0
    3.5274    3.4783    1.1030 C   0  0  0  0  0  0
   -0.9968   -0.6665   -0.7108 N   0  0  0  0  0  0
    1.5140    3.8917    0.9278 H   0  0  0  0  0  0
    0.7309    3.8911   -0.5586 H   0  0  0  0  0  0
    5.2785   -0.7745    1.7044 H   0  0  0  0  0  0
    6.6117    1.1557    1.8750 H   0  0  0  0  0  0
    6.0017    2.7385    1.3357 H   0  0  0  0  0  0
    6.5630   -0.1777    3.0474 H   0  0  0  0  0  0
    7.1443   -1.7299    4.8649 H   0  0  0  0  0  0
    6.8458   -1.0510    7.2108 H   0  0  0  0  0  0
    5.3889    2.7558    5.9289 H   0  0  0  0  0  0
    7.3437    0.0584    8.9135 H   0  0  0  0  0  0
    6.1085    0.7352   10.0018 H   0  0  0  0  0  0
    5.6856   -0.5885    8.8894 H   0  0  0  0  0  0
    3.9939    3.5564    3.7185 H   0  0  0  0  0  0
    5.4884    3.9351    4.6081 H   0  0  0  0  0  0
    5.3712    4.2984    2.8696 H   0  0  0  0  0  0
    3.0562    3.8321    2.0200 H   0  0  0  0  0  0
    4.5701    3.7954    1.0846 H   0  0  0  0  0  0
    3.0055    3.8958    0.2420 H   0  0  0  0  0  0
   -1.7757   -0.1668   -1.0017 H   0  0  0  0  0  0
   -1.0070   -1.6362   -0.7319 H   0  0  0  0  0  0
  1  2  1  0  0  0
  1  6  2  0  0  0
  2  3  2  0  0  0
  2 24  1  0  0  0
  3  4  1  0  0  0
  4  5  2  0  0  0
  4 11  1  0  0  0
  5  6  1  0  0  0
  5  8  1  0  0  0
  6  7  1  0  0  0
  7 25  1  0  0  0
  7 26  1  0  0  0
  8  9  2  0  0  0
  8 23  1  0  0  0
  9 10  1  0  0  0
  9 12  1  0  0  0
 10 11  2  0  0  0
 10 27  1  0  0  0
 12 13  1  0  0  0
 12 28  1  0  0  0
 12 29  1  0  0  0
 13 14  1  0  0  0
 13 22  1  0  0  0
 14 15  1  0  0  0
 14 19  2  0  0  0
 15 16  2  0  0  0
 15 30  1  0  0  0
 16 17  1  0  0  0
 16 31  1  0  0  0
 17 18  2  0  0  0
 17 32  1  0  0  0
 18 19  1  0  0  0
 18 20  1  0  0  0
 19 33  1  0  0  0
 20 21  1  0  0  0
 21 34  1  0  0  0
 21 35  1  0  0  0
 21 36  1  0  0  0
 22 37  1  0  0  0
 22 38  1  0  0  0
 22 39  1  0  0  0
 23 40  1  0  0  0
 23 41  1  0  0  0
 23 42  1  0  0  0
 24 43  1  0  0  0
 24 44  1  0  0  0
M  END
>  <Activity>
7.74473

>  <set_rl>
1

>  <Min_dist>
999.9

>  <Avg_dist>
999.9

>  <PC_uM>
0.03

>  <TG_uM>
0.0063

>  <RL_uM>
0.018

$$$$
27-14
 Wcorina  11170919323D 1   1.00000     0.00000              
CORINA evaluation license 3.46 0067  05.08.2008
 44 46  0  0  0  0  0  0  0  0999 V2000
    0.1104    1.3327   -0.2494 N   0  0  0  0  0  0
    0.1273    0.0031   -0.2664 C   0  0  0  0  0  0
    1.1709   -0.7048    0.1231 N   0  0  0  0  0  0
    2.2818   -0.0956    0.5614 C   0  0  0  0  0  0
    2.3076    1.3202    0.5959 C   0  0  0  0  0  0
    1.1587    2.0293    0.1663 C   0  0  0  0  0  0
    1.1319    3.4065    0.1799 N   0  0  0  0  0  0
    3.4588    1.9738    1.0510 C   0  0  0  0  0  0
    4.5216    1.2052    1.4473 C   0  0  0  0  0  0
    4.4334   -0.1805    1.3893 C   0  0  0  0  0  0
    3.3494   -0.7876    0.9609 N   0  0  0  0  0  0
    5.7838    1.8612    1.9448 C   0  0  0  0  0  0
    5.6052    2.2681    3.3408 N   0  0  0  0  0  0
    5.9353    1.3848    4.3747 C   0  0  0  0  0  0
    5.7662    1.7700    5.6980 C   0  0  0  0  0  0
    6.0922    0.8976    6.7179 C   0  0  0  0  0  0
    6.5889   -0.3628    6.4206 C   0  0  0  0  0  0
    6.7585   -0.7483    5.0991 C   0  0  0  0  0  0
    6.4268    0.1204    4.0779 C   0  0  0  0  0  0
    6.9101   -1.2211    7.4255 O   0  0  0  0  0  0
    7.4162   -2.5028    7.0470 C   0  0  0  0  0  0
    5.0811    3.5997    3.6543 C   0  0  0  0  0  0
    3.5274    3.4783    1.1030 C   0  0  0  0  0  0
   -0.9968   -0.6665   -0.7108 N   0  0  0  0  0  0
    1.5140    3.8917    0.9278 H   0  0  0  0  0  0
    0.7309    3.8911   -0.5586 H   0  0  0  0  0  0
    5.2785   -0.7745    1.7044 H   0  0  0  0  0  0
    6.6117    1.1557    1.8750 H   0  0  0  0  0  0
    6.0017    2.7385    1.3357 H   0  0  0  0  0  0
    5.3802    2.7517    5.9297 H   0  0  0  0  0  0
    5.9608    1.1971    7.7472 H   0  0  0  0  0  0
    7.1456   -1.7298    4.8684 H   0  0  0  0  0  0
    6.5541   -0.1818    3.0489 H   0  0  0  0  0  0
    6.6725   -3.0234    6.4437 H   0  0  0  0  0  0
    8.3303   -2.3757    6.4670 H   0  0  0  0  0  0
    7.6319   -3.0869    7.9416 H   0  0  0  0  0  0
    3.9939    3.5564    3.7185 H   0  0  0  0  0  0
    5.4884    3.9351    4.6081 H   0  0  0  0  0  0
    5.3712    4.2984    2.8696 H   0  0  0  0  0  0
    3.0562    3.8321    2.0200 H   0  0  0  0  0  0
    4.5701    3.7954    1.0846 H   0  0  0  0  0  0
    3.0055    3.8958    0.2420 H   0  0  0  0  0  0
   -1.7757   -0.1668   -1.0017 H   0  0  0  0  0  0
   -1.0070   -1.6362   -0.7319 H   0  0  0  0  0  0
  1  2  1  0  0  0
  1  6  2  0  0  0
  2  3  2  0  0  0
  2 24  1  0  0  0
  3  4  1  0  0  0
  4  5  2  0  0  0
  4 11  1  0  0  0
  5  6  1  0  0  0
  5  8  1  0  0  0
  6  7  1  0  0  0
  7 25  1  0  0  0
  7 26  1  0  0  0
  8  9  2  0  0  0
  8 23  1  0  0  0
  9 10  1  0  0  0
  9 12  1  0  0  0
 10 11  2  0  0  0
 10 27  1  0  0  0
 12 13  1  0  0  0
 12 28  1  0  0  0
 12 29  1  0  0  0
 13 14  1  0  0  0
 13 22  1  0  0  0
 14 15  1  0  0  0
 14 19  2  0  0  0
 15 16  2  0  0  0
 15 30  1  0  0  0
 16 17  1  0  0  0
 16 31  1  0  0  0
 17 18  2  0  0  0
 17 20  1  0  0  0
 18 19  1  0  0  0
 18 32  1  0  0  0
 19 33  1  0  0  0
 20 21  1  0  0  0
 21 34  1  0  0  0
 21 35  1  0  0  0
 21 36  1  0  0  0
 22 37  1  0  0  0
 22 38  1  0  0  0
 22 39  1  0  0  0
 23 40  1  0  0  0
 23 41  1  0  0  0
 23 42  1  0  0  0
 24 43  1  0  0  0
 24 44  1  0  0  0
M  END
>  <Activity>
7.88606

>  <set_rl>
1

>  <Min_dist>
999.9

>  <Avg_dist>
999.9

>  <PC_uM>
0.035

>  <TG_uM>
0.0073

>  <RL_uM>
0.013

$$$$
27-16
 Wcorina  11170919323D 1   1.00000     0.00000              
CORINA evaluation license 3.46 0067  05.08.2008
 40 42  0  0  0  0  0  0  0  0999 V2000
    0.1104    1.3327   -0.2494 N   0  0  0  0  0  0
    0.1273    0.0031   -0.2664 C   0  0  0  0  0  0
    1.1709   -0.7048    0.1231 N   0  0  0  0  0  0
    2.2818   -0.0956    0.5614 C   0  0  0  0  0  0
    2.3076    1.3202    0.5959 C   0  0  0  0  0  0
    1.1587    2.0293    0.1663 C   0  0  0  0  0  0
    1.1319    3.4065    0.1799 N   0  0  0  0  0  0
    3.4588    1.9738    1.0510 C   0  0  0  0  0  0
    4.5216    1.2052    1.4473 C   0  0  0  0  0  0
    4.4334   -0.1805    1.3893 C   0  0  0  0  0  0
    3.3494   -0.7876    0.9609 N   0  0  0  0  0  0
    5.7838    1.8612    1.9448 C   0  0  0  0  0  0
    5.6052    2.2681    3.3408 N   0  0  0  0  0  0
    5.9348    1.3860    4.3733 C   0  0  0  0  0  0
    5.7661    1.7705    5.6973 C   0  0  0  0  0  0
    6.0927    0.8967    6.7157 C   0  0  0  0  0  0
    6.5877   -0.3608    6.4181 C   0  0  0  0  0  0
    6.7573   -0.7463    5.0999 C   0  0  0  0  0  0
    6.4265    0.1211    4.0774 C   0  0  0  0  0  0
    6.9972   -1.4566    7.7007 Cl  0  0  0  0  0  0
    5.0811    3.5997    3.6543 C   0  0  0  0  0  0
    3.5274    3.4783    1.1030 C   0  0  0  0  0  0
   -0.9968   -0.6665   -0.7108 N   0  0  0  0  0  0
    1.5140    3.8917    0.9278 H   0  0  0  0  0  0
    0.7309    3.8911   -0.5586 H   0  0  0  0  0  0
    5.2785   -0.7745    1.7044 H   0  0  0  0  0  0
    6.6117    1.1557    1.8750 H   0  0  0  0  0  0
    6.0017    2.7385    1.3357 H   0  0  0  0  0  0
    5.3801    2.7519    5.9301 H   0  0  0  0  0  0
    5.9620    1.1952    7.7453 H   0  0  0  0  0  0
    7.1444   -1.7281    4.8705 H   0  0  0  0  0  0
    6.5542   -0.1822    3.0487 H   0  0  0  0  0  0
    3.9939    3.5564    3.7185 H   0  0  0  0  0  0
    5.4884    3.9351    4.6081 H   0  0  0  0  0  0
    5.3712    4.2984    2.8696 H   0  0  0  0  0  0
    3.0562    3.8321    2.0200 H   0  0  0  0  0  0
    4.5701    3.7954    1.0846 H   0  0  0  0  0  0
    3.0055    3.8958    0.2420 H   0  0  0  0  0  0
   -1.7757   -0.1668   -1.0017 H   0  0  0  0  0  0
   -1.0070   -1.6362   -0.7319 H   0  0  0  0  0  0
  1  2  1  0  0  0
  1  6  2  0  0  0
  2  3  2  0  0  0
  2 23  1  0  0  0
  3  4  1  0  0  0
  4  5  2  0  0  0
  4 11  1  0  0  0
  5  6  1  0  0  0
  5  8  1  0  0  0
  6  7  1  0  0  0
  7 24  1  0  0  0
  7 25  1  0  0  0
  8  9  2  0  0  0
  8 22  1  0  0  0
  9 10  1  0  0  0
  9 12  1  0  0  0
 10 11  2  0  0  0
 10 26  1  0  0  0
 12 13  1  0  0  0
 12 27  1  0  0  0
 12 28  1  0  0  0
 13 14  1  0  0  0
 13 21  1  0  0  0
 14 15  1  0  0  0
 14 19  2  0  0  0
 15 16  2  0  0  0
 15 29  1  0  0  0
 16 17  1  0  0  0
 16 30  1  0  0  0
 17 18  2  0  0  0
 17 20  1  0  0  0
 18 19  1  0  0  0
 18 31  1  0  0  0
 19 32  1  0  0  0
 21 33  1  0  0  0
 21 34  1  0  0  0
 21 35  1  0  0  0
 22 36  1  0  0  0
 22 37  1  0  0  0
 22 38  1  0  0  0
 23 39  1  0  0  0
 23 40  1  0  0  0
M  END
>  <Activity>
7.58503

>  <set_rl>
1

>  <Min_dist>
999.9

>  <Avg_dist>
999.9

>  <PC_uM>
0.029

>  <TG_uM>
0.0054

>  <RL_uM>
0.026

$$$$
10-2B
 Wcorina  11170919323D 1   1.00000     0.00000              
CORINA evaluation license 3.46 0067  05.08.2008
 35 37  0  0  0  0  0  0  0  0999 V2000
   -0.0160    1.3257    0.0093 N   0  0  0  0  0  0
    0.0021   -0.0041    0.0020 C   0  0  0  0  0  0
    1.1203   -0.7049   -0.0120 N   0  0  0  0  0  0
    2.3106   -0.0881   -0.0200 C   0  0  0  0  0  0
    2.3382    1.3281   -0.0131 C   0  0  0  0  0  0
    1.1072    2.0294    0.0024 C   0  0  0  0  0  0
    1.0784    3.4067    0.0096 N   0  0  0  0  0  0
    3.5719    1.9896   -0.0209 C   0  0  0  0  0  0
    4.7108    1.2282   -0.0349 C   0  0  0  0  0  0
    4.6164   -0.1584   -0.0411 C   0  0  0  0  0  0
    3.4548   -0.7729   -0.0338 N   0  0  0  0  0  0
    6.0633    1.8928   -0.0442 C   0  0  0  0  0  0
    6.5102    2.0998    1.3217 O   0  0  0  0  0  0
    7.7104    2.6880    1.4900 C   0  0  0  0  0  0
    8.3656    3.0190    0.5222 O   0  0  0  0  0  0
    8.2296    2.9306    2.8516 C   0  0  0  0  0  0
    9.4732    3.5401    3.0296 C   0  0  0  0  0  0
    9.9519    3.7640    4.3038 C   0  0  0  0  0  0
    9.2029    3.3858    5.4040 C   0  0  0  0  0  0
    7.9700    2.7810    5.2348 C   0  0  0  0  0  0
    7.4765    2.5567    3.9663 C   0  0  0  0  0  0
   -1.2023   -0.6814    0.0099 N   0  0  0  0  0  0
    0.2285    3.8740    0.0199 H   0  0  0  0  0  0
    1.9081    3.9092    0.0044 H   0  0  0  0  0  0
    3.6243    3.0683   -0.0162 H   0  0  0  0  0  0
    5.5220   -0.7467   -0.0526 H   0  0  0  0  0  0
    6.7771    1.2568   -0.5676 H   0  0  0  0  0  0
    5.9921    2.8543   -0.5528 H   0  0  0  0  0  0
   10.0592    3.8351    2.1717 H   0  0  0  0  0  0
   10.9136    4.2353    4.4429 H   0  0  0  0  0  0
    9.5825    3.5632    6.3994 H   0  0  0  0  0  0
    7.3908    2.4876    6.0979 H   0  0  0  0  0  0
    6.5120    2.0886    3.8356 H   0  0  0  0  0  0
   -2.0368   -0.1869    0.0205 H   0  0  0  0  0  0
   -1.2133   -1.6513    0.0048 H   0  0  0  0  0  0
  1  2  1  0  0  0
  1  6  2  0  0  0
  2  3  2  0  0  0
  2 22  1  0  0  0
  3  4  1  0  0  0
  4  5  2  0  0  0
  4 11  1  0  0  0
  5  6  1  0  0  0
  5  8  1  0  0  0
  6  7  1  0  0  0
  7 23  1  0  0  0
  7 24  1  0  0  0
  8  9  2  0  0  0
  8 25  1  0  0  0
  9 10  1  0  0  0
  9 12  1  0  0  0
 10 11  2  0  0  0
 10 26  1  0  0  0
 12 13  1  0  0  0
 12 27  1  0  0  0
 12 28  1  0  0  0
 13 14  1  0  0  0
 14 15  2  0  0  0
 14 16  1  0  0  0
 16 17  1  0  0  0
 16 21  2  0  0  0
 17 18  2  0  0  0
 17 29  1  0  0  0
 18 19  1  0  0  0
 18 30  1  0  0  0
 19 20  2  0  0  0
 19 31  1  0  0  0
 20 21  1  0  0  0
 20 32  1  0  0  0
 21 33  1  0  0  0
 22 34  1  0  0  0
 22 35  1  0  0  0
M  END
>  <Activity>
5.40894

>  <set_rl>
1

>  <Min_dist>
999.9

>  <Avg_dist>
999.9

>  <PC_uM>
5.45

>  <TG_uM>
1.9

>  <RL_uM>
3.9

$$$$
28-3
 Wcorina  11170919323D 1   1.00000     0.00000              
CORINA evaluation license 3.46 0067  05.08.2008
 49 51  0  0  0  0  0  0  0  0999 V2000
   -0.0160    1.3257    0.0093 N   0  0  0  0  0  0
    0.0021   -0.0041    0.0020 C   0  0  0  0  0  0
    1.1203   -0.7049   -0.0120 N   0  0  0  0  0  0
    2.3106   -0.0881   -0.0200 C   0  0  0  0  0  0
    2.3382    1.3281   -0.0131 C   0  0  0  0  0  0
    1.1072    2.0294    0.0024 C   0  0  0  0  0  0
    1.0784    3.4067    0.0096 N   0  0  0  0  0  0
    3.5719    1.9896   -0.0209 C   0  0  0  0  0  0
    4.7108    1.2282   -0.0349 C   0  0  0  0  0  0
    4.6164   -0.1584   -0.0411 C   0  0  0  0  0  0
    3.4548   -0.7729   -0.0338 N   0  0  0  0  0  0
    6.0633    1.8928   -0.0442 C   0  0  0  0  0  0
    6.5142    2.1017    1.3339 N   0  0  0  0  0  0
    7.2639    1.1140    1.9819 C   0  0  0  0  0  0
    7.6910    1.3123    3.2879 C   0  0  0  0  0  0
    8.4338    0.3341    3.9306 C   0  0  0  0  0  0
    8.7509   -0.8451    3.2673 C   0  0  0  0  0  0
    8.3230   -1.0429    1.9601 C   0  0  0  0  0  0
    7.5754   -0.0662    1.3206 C   0  0  0  0  0  0
    8.6328   -2.1966    1.3102 O   0  0  0  0  0  0
    8.1603   -2.3323   -0.0316 C   0  0  0  0  0  0
    9.4810   -1.8064    3.8979 O   0  0  0  0  0  0
    8.7556   -2.7959    4.6305 C   0  0  0  0  0  0
    8.8525    0.5287    5.2097 O   0  0  0  0  0  0
    8.4908    1.7642    5.8299 C   0  0  0  0  0  0
    6.1802    3.3448    2.0335 C   0  0  0  0  0  0
   -1.2023   -0.6814    0.0099 N   0  0  0  0  0  0
    0.2285    3.8740    0.0199 H   0  0  0  0  0  0
    1.9081    3.9092    0.0044 H   0  0  0  0  0  0
    3.6243    3.0683   -0.0162 H   0  0  0  0  0  0
    5.5220   -0.7467   -0.0526 H   0  0  0  0  0  0
    6.7771    1.2568   -0.5676 H   0  0  0  0  0  0
    5.9921    2.8543   -0.5528 H   0  0  0  0  0  0
    7.4448    2.2290    3.8032 H   0  0  0  0  0  0
    7.2387   -0.2218    0.3063 H   0  0  0  0  0  0
    8.4760   -3.2956   -0.4323 H   0  0  0  0  0  0
    7.0719   -2.2740   -0.0412 H   0  0  0  0  0  0
    8.5725   -1.5310   -0.6448 H   0  0  0  0  0  0
    8.0880   -3.3311    3.9553 H   0  0  0  0  0  0
    9.4553   -3.4990    5.0824 H   0  0  0  0  0  0
    8.1702   -2.3124    5.4127 H   0  0  0  0  0  0
    8.9053    2.5935    5.2567 H   0  0  0  0  0  0
    7.4047    1.8509    5.8609 H   0  0  0  0  0  0
    8.8865    1.7907    6.8452 H   0  0  0  0  0  0
    5.2309    3.2241    2.5555 H   0  0  0  0  0  0
    6.9640    3.5780    2.7542 H   0  0  0  0  0  0
    6.0970    4.1570    1.3114 H   0  0  0  0  0  0
   -2.0368   -0.1869    0.0205 H   0  0  0  0  0  0
   -1.2133   -1.6513    0.0048 H   0  0  0  0  0  0
  1  2  1  0  0  0
  1  6  2  0  0  0
  2  3  2  0  0  0
  2 27  1  0  0  0
  3  4  1  0  0  0
  4  5  2  0  0  0
  4 11  1  0  0  0
  5  6  1  0  0  0
  5  8  1  0  0  0
  6  7  1  0  0  0
  7 28  1  0  0  0
  7 29  1  0  0  0
  8  9  2  0  0  0
  8 30  1  0  0  0
  9 10  1  0  0  0
  9 12  1  0  0  0
 10 11  2  0  0  0
 10 31  1  0  0  0
 12 13  1  0  0  0
 12 32  1  0  0  0
 12 33  1  0  0  0
 13 14  1  0  0  0
 13 26  1  0  0  0
 14 15  1  0  0  0
 14 19  2  0  0  0
 15 16  2  0  0  0
 15 34  1  0  0  0
 16 17  1  0  0  0
 16 24  1  0  0  0
 17 18  2  0  0  0
 17 22  1  0  0  0
 18 19  1  0  0  0
 18 20  1  0  0  0
 19 35  1  0  0  0
 20 21  1  0  0  0
 21 36  1  0  0  0
 21 37  1  0  0  0
 21 38  1  0  0  0
 22 23  1  0  0  0
 23 39  1  0  0  0
 23 40  1  0  0  0
 23 41  1  0  0  0
 24 25  1  0  0  0
 25 42  1  0  0  0
 25 43  1  0  0  0
 25 44  1  0  0  0
 26 45  1  0  0  0
 26 46  1  0  0  0
 26 47  1  0  0  0
 27 48  1  0  0  0
 27 49  1  0  0  0
M  END
>  <Activity>
6.55284

>  <set_rl>
1

>  <Min_dist>
999.9

>  <Avg_dist>
999.9

>  <PC_uM>
0.24

>  <TG_uM>
0.009

>  <RL_uM>
0.28

$$$$
28-4
 Wcorina  11170919323D 1   1.00000     0.00000              
CORINA evaluation license 3.46 0067  05.08.2008
 52 54  0  0  0  0  0  0  0  0999 V2000
   -0.0160    1.3257    0.0093 N   0  0  0  0  0  0
    0.0021   -0.0041    0.0020 C   0  0  0  0  0  0
    1.1203   -0.7049   -0.0120 N   0  0  0  0  0  0
    2.3106   -0.0881   -0.0200 C   0  0  0  0  0  0
    2.3382    1.3281   -0.0131 C   0  0  0  0  0  0
    1.1072    2.0294    0.0024 C   0  0  0  0  0  0
    1.0784    3.4067    0.0096 N   0  0  0  0  0  0
    3.5719    1.9896   -0.0209 C   0  0  0  0  0  0
    4.7108    1.2282   -0.0349 C   0  0  0  0  0  0
    4.6164   -0.1584   -0.0411 C   0  0  0  0  0  0
    3.4548   -0.7729   -0.0338 N   0  0  0  0  0  0
    6.0633    1.8928   -0.0442 C   0  0  0  0  0  0
    6.5142    2.1017    1.3339 N   0  0  0  0  0  0
    7.2639    1.1140    1.9819 C   0  0  0  0  0  0
    7.6910    1.3123    3.2879 C   0  0  0  0  0  0
    8.4338    0.3341    3.9306 C   0  0  0  0  0  0
    8.7509   -0.8451    3.2673 C   0  0  0  0  0  0
    8.3230   -1.0429    1.9601 C   0  0  0  0  0  0
    7.5754   -0.0662    1.3206 C   0  0  0  0  0  0
    8.6328   -2.1966    1.3102 O   0  0  0  0  0  0
    8.1603   -2.3323   -0.0316 C   0  0  0  0  0  0
    9.4810   -1.8064    3.8979 O   0  0  0  0  0  0
    8.7556   -2.7959    4.6305 C   0  0  0  0  0  0
    8.8525    0.5287    5.2097 O   0  0  0  0  0  0
    8.4908    1.7642    5.8299 C   0  0  0  0  0  0
    6.1802    3.3448    2.0335 C   0  0  0  0  0  0
    4.8477    3.1754    2.7663 C   0  0  0  0  0  0
   -1.2023   -0.6814    0.0099 N   0  0  0  0  0  0
    0.2285    3.8740    0.0199 H   0  0  0  0  0  0
    1.9081    3.9092    0.0044 H   0  0  0  0  0  0
    3.6243    3.0683   -0.0162 H   0  0  0  0  0  0
    5.5220   -0.7467   -0.0526 H   0  0  0  0  0  0
    6.7771    1.2568   -0.5676 H   0  0  0  0  0  0
    5.9921    2.8543   -0.5528 H   0  0  0  0  0  0
    7.4448    2.2290    3.8032 H   0  0  0  0  0  0
    7.2387   -0.2218    0.3063 H   0  0  0  0  0  0
    7.0719   -2.2740   -0.0412 H   0  0  0  0  0  0
    8.5725   -1.5310   -0.6448 H   0  0  0  0  0  0
    8.4760   -3.2956   -0.4323 H   0  0  0  0  0  0
    8.1702   -2.3124    5.4127 H   0  0  0  0  0  0
    8.0880   -3.3311    3.9553 H   0  0  0  0  0  0
    9.4553   -3.4990    5.0824 H   0  0  0  0  0  0
    8.9053    2.5935    5.2567 H   0  0  0  0  0  0
    7.4047    1.8509    5.8609 H   0  0  0  0  0  0
    8.8865    1.7907    6.8452 H   0  0  0  0  0  0
    6.9640    3.5780    2.7542 H   0  0  0  0  0  0
    6.0970    4.1570    1.3114 H   0  0  0  0  0  0
    4.0639    2.9421    2.0456 H   0  0  0  0  0  0
    4.9309    2.3631    3.4884 H   0  0  0  0  0  0
    4.5992    4.1002    3.2868 H   0  0  0  0  0  0
   -2.0368   -0.1869    0.0205 H   0  0  0  0  0  0
   -1.2133   -1.6513    0.0048 H   0  0  0  0  0  0
  1  2  1  0  0  0
  1  6  2  0  0  0
  2  3  2  0  0  0
  2 28  1  0  0  0
  3  4  1  0  0  0
  4  5  2  0  0  0
  4 11  1  0  0  0
  5  6  1  0  0  0
  5  8  1  0  0  0
  6  7  1  0  0  0
  7 29  1  0  0  0
  7 30  1  0  0  0
  8  9  2  0  0  0
  8 31  1  0  0  0
  9 10  1  0  0  0
  9 12  1  0  0  0
 10 11  2  0  0  0
 10 32  1  0  0  0
 12 13  1  0  0  0
 12 33  1  0  0  0
 12 34  1  0  0  0
 13 14  1  0  0  0
 13 26  1  0  0  0
 14 15  1  0  0  0
 14 19  2  0  0  0
 15 16  2  0  0  0
 15 35  1  0  0  0
 16 17  1  0  0  0
 16 24  1  0  0  0
 17 18  2  0  0  0
 17 22  1  0  0  0
 18 19  1  0  0  0
 18 20  1  0  0  0
 19 36  1  0  0  0
 20 21  1  0  0  0
 21 37  1  0  0  0
 21 38  1  0  0  0
 21 39  1  0  0  0
 22 23  1  0  0  0
 23 40  1  0  0  0
 23 41  1  0  0  0
 23 42  1  0  0  0
 24 25  1  0  0  0
 25 43  1  0  0  0
 25 44  1  0  0  0
 25 45  1  0  0  0
 26 27  1  0  0  0
 26 46  1  0  0  0
 26 47  1  0  0  0
 27 48  1  0  0  0
 27 49  1  0  0  0
 27 50  1  0  0  0
 28 51  1  0  0  0
 28 52  1  0  0  0
M  END
>  <Activity>
6.92082

>  <set_rl>
1

>  <Min_dist>
999.9

>  <Avg_dist>
999.9

>  <PC_uM>
0.19

>  <TG_uM>
0.049

>  <RL_uM>
0.12

$$$$
23-4B
 Wcorina  11170919323D 1   1.00000     0.00000              
CORINA evaluation license 3.46 0067  05.08.2008
 37 39  0  0  0  0  0  0  0  0999 V2000
    0.1451    1.3345   -0.2391 N   0  0  0  0  0  0
    0.1606    0.0048   -0.2565 C   0  0  0  0  0  0
    1.2034   -0.7042    0.1331 N   0  0  0  0  0  0
    2.3148   -0.0963    0.5720 C   0  0  0  0  0  0
    2.3420    1.3195    0.6069 C   0  0  0  0  0  0
    1.1939    2.0298    0.1772 C   0  0  0  0  0  0
    1.1685    3.4071    0.1912 N   0  0  0  0  0  0
    3.4938    1.9718    1.0626 C   0  0  0  0  0  0
    4.5556    1.2020    1.4590 C   0  0  0  0  0  0
    4.4660   -0.1836    1.4005 C   0  0  0  0  0  0
    3.3816   -0.7895    0.9716 N   0  0  0  0  0  0
    5.8183    1.8566    1.9570 C   0  0  0  0  0  0
    5.6398    2.2632    3.3531 N   0  0  0  0  0  0
    6.6823    2.8960    4.0353 C   0  0  0  0  0  0
    6.5142    3.2821    5.3592 C   0  0  0  0  0  0
    7.5458    3.9072    6.0316 C   0  0  0  0  0  0
    8.7465    4.1500    5.3881 C   0  0  0  0  0  0
    8.9174    3.7664    4.0685 C   0  0  0  0  0  0
    7.8900    3.1347    3.3929 C   0  0  0  0  0  0
   10.4252    4.0726    3.2644 Cl  0  0  0  0  0  0
   10.0406    4.9371    6.2362 Cl  0  0  0  0  0  0
    3.5638    3.4762    1.1150 C   0  0  0  0  0  0
   -0.9640   -0.6635   -0.7014 N   0  0  0  0  0  0
    1.5508    3.8917    0.9394 H   0  0  0  0  0  0
    0.7683    3.8924   -0.5473 H   0  0  0  0  0  0
    5.3105   -0.7785    1.7157 H   0  0  0  0  0  0
    6.6456    1.1503    1.8873 H   0  0  0  0  0  0
    6.0373    2.7338    1.3482 H   0  0  0  0  0  0
    4.7978    2.0933    3.8038 H   0  0  0  0  0  0
    5.5772    3.0937    5.8621 H   0  0  0  0  0  0
    7.4151    4.2074    7.0608 H   0  0  0  0  0  0
    8.0248    2.8316    2.3651 H   0  0  0  0  0  0
    3.0931    3.8301    2.0322 H   0  0  0  0  0  0
    4.6068    3.7923    1.0967 H   0  0  0  0  0  0
    3.0422    3.8945    0.2542 H   0  0  0  0  0  0
   -1.7422   -0.1630   -0.9924 H   0  0  0  0  0  0
   -0.9752   -1.6332   -0.7228 H   0  0  0  0  0  0
  1  2  1  0  0  0
  1  6  2  0  0  0
  2  3  2  0  0  0
  2 23  1  0  0  0
  3  4  1  0  0  0
  4  5  2  0  0  0
  4 11  1  0  0  0
  5  6  1  0  0  0
  5  8  1  0  0  0
  6  7  1  0  0  0
  7 24  1  0  0  0
  7 25  1  0  0  0
  8  9  2  0  0  0
  8 22  1  0  0  0
  9 10  1  0  0  0
  9 12  1  0  0  0
 10 11  2  0  0  0
 10 26  1  0  0  0
 12 13  1  0  0  0
 12 27  1  0  0  0
 12 28  1  0  0  0
 13 14  1  0  0  0
 13 29  1  0  0  0
 14 15  1  0  0  0
 14 19  2  0  0  0
 15 16  2  0  0  0
 15 30  1  0  0  0
 16 17  1  0  0  0
 16 31  1  0  0  0
 17 18  2  0  0  0
 17 21  1  0  0  0
 18 19  1  0  0  0
 18 20  1  0  0  0
 19 32  1  0  0  0
 22 33  1  0  0  0
 22 34  1  0  0  0
 22 35  1  0  0  0
 23 36  1  0  0  0
 23 37  1  0  0  0
M  END
>  <Activity>
7.27572

>  <set_rl>
1

>  <Min_dist>
999.9

>  <Avg_dist>
999.9

>  <PC_uM>
0.32

>  <TG_uM>
0.028

>  <RL_uM>
0.053

$$$$
24-2A
 Wcorina  11170919323D 1   1.00000     0.00000              
CORINA evaluation license 3.46 0067  05.08.2008
 45 47  0  0  0  0  0  0  0  0999 V2000
    0.1451    1.3345   -0.2391 N   0  0  0  0  0  0
    0.1606    0.0048   -0.2565 C   0  0  0  0  0  0
    1.2034   -0.7042    0.1331 N   0  0  0  0  0  0
    2.3148   -0.0963    0.5720 C   0  0  0  0  0  0
    2.3420    1.3195    0.6069 C   0  0  0  0  0  0
    1.1939    2.0298    0.1772 C   0  0  0  0  0  0
    1.1685    3.4071    0.1912 N   0  0  0  0  0  0
    3.4938    1.9718    1.0626 C   0  0  0  0  0  0
    4.5556    1.2020    1.4590 C   0  0  0  0  0  0
    4.4660   -0.1836    1.4005 C   0  0  0  0  0  0
    3.3816   -0.7895    0.9716 N   0  0  0  0  0  0
    5.8183    1.8566    1.9570 C   0  0  0  0  0  0
    5.6398    2.2632    3.3531 N   0  0  0  0  0  0
    6.6839    2.8969    4.0363 C   0  0  0  0  0  0
    7.8883    3.1406    3.3930 C   0  0  0  0  0  0
    8.9206    3.7689    4.0724 C   0  0  0  0  0  0
    8.7497    4.1532    5.3942 C   0  0  0  0  0  0
    7.5501    3.9109    6.0376 C   0  0  0  0  0  0
    6.5135    3.2893    5.3620 C   0  0  0  0  0  0
    5.3310    3.0568    5.9944 O   0  0  0  0  0  0
    5.2268    3.4859    7.3534 C   0  0  0  0  0  0
   10.1018    4.0083    3.4427 O   0  0  0  0  0  0
   11.1219    4.6594    4.2026 C   0  0  0  0  0  0
    3.5638    3.4762    1.1150 C   0  0  0  0  0  0
   -0.9640   -0.6635   -0.7014 N   0  0  0  0  0  0
    1.5508    3.8917    0.9394 H   0  0  0  0  0  0
    0.7683    3.8924   -0.5473 H   0  0  0  0  0  0
    5.3105   -0.7785    1.7157 H   0  0  0  0  0  0
    6.6456    1.1503    1.8873 H   0  0  0  0  0  0
    6.0373    2.7338    1.3482 H   0  0  0  0  0  0
    4.7978    2.0933    3.8038 H   0  0  0  0  0  0
    8.0219    2.8408    2.3641 H   0  0  0  0  0  0
    9.5552    4.6423    5.9218 H   0  0  0  0  0  0
    7.4199    4.2109    7.0669 H   0  0  0  0  0  0
    4.2364    3.2407    7.7369 H   0  0  0  0  0  0
    5.9839    2.9806    7.9531 H   0  0  0  0  0  0
    5.3806    4.5636    7.4070 H   0  0  0  0  0  0
   10.7630    5.6343    4.5323 H   0  0  0  0  0  0
   11.3715    4.0511    5.0719 H   0  0  0  0  0  0
   12.0093    4.7893    3.5832 H   0  0  0  0  0  0
    3.0931    3.8301    2.0322 H   0  0  0  0  0  0
    4.6068    3.7923    1.0967 H   0  0  0  0  0  0
    3.0422    3.8945    0.2542 H   0  0  0  0  0  0
   -1.7422   -0.1630   -0.9924 H   0  0  0  0  0  0
   -0.9752   -1.6332   -0.7228 H   0  0  0  0  0  0
  1  2  1  0  0  0
  1  6  2  0  0  0
  2  3  2  0  0  0
  2 25  1  0  0  0
  3  4  1  0  0  0
  4  5  2  0  0  0
  4 11  1  0  0  0
  5  6  1  0  0  0
  5  8  1  0  0  0
  6  7  1  0  0  0
  7 26  1  0  0  0
  7 27  1  0  0  0
  8  9  2  0  0  0
  8 24  1  0  0  0
  9 10  1  0  0  0
  9 12  1  0  0  0
 10 11  2  0  0  0
 10 28  1  0  0  0
 12 13  1  0  0  0
 12 29  1  0  0  0
 12 30  1  0  0  0
 13 14  1  0  0  0
 13 31  1  0  0  0
 14 15  1  0  0  0
 14 19  2  0  0  0
 15 16  2  0  0  0
 15 32  1  0  0  0
 16 17  1  0  0  0
 16 22  1  0  0  0
 17 18  2  0  0  0
 17 33  1  0  0  0
 18 19  1  0  0  0
 18 34  1  0  0  0
 19 20  1  0  0  0
 20 21  1  0  0  0
 21 35  1  0  0  0
 21 36  1  0  0  0
 21 37  1  0  0  0
 22 23  1  0  0  0
 23 38  1  0  0  0
 23 39  1  0  0  0
 23 40  1  0  0  0
 24 41  1  0  0  0
 24 42  1  0  0  0
 24 43  1  0  0  0
 25 44  1  0  0  0
 25 45  1  0  0  0
M  END
>  <Activity>
6.89279

>  <set_rl>
1

>  <Min_dist>
999.9

>  <Avg_dist>
999.9

>  <PC_uM>
0.046

>  <TG_uM>
0.016

>  <RL_uM>
0.128

$$$$
24-2B
 Wcorina  11170919323D 1   1.00000     0.00000              
CORINA evaluation license 3.46 0067  05.08.2008
 45 47  0  0  0  0  0  0  0  0999 V2000
    0.1451    1.3345   -0.2391 N   0  0  0  0  0  0
    0.1606    0.0048   -0.2565 C   0  0  0  0  0  0
    1.2034   -0.7042    0.1331 N   0  0  0  0  0  0
    2.3148   -0.0963    0.5720 C   0  0  0  0  0  0
    2.3420    1.3195    0.6069 C   0  0  0  0  0  0
    1.1939    2.0298    0.1772 C   0  0  0  0  0  0
    1.1685    3.4071    0.1912 N   0  0  0  0  0  0
    3.4938    1.9718    1.0626 C   0  0  0  0  0  0
    4.5556    1.2020    1.4590 C   0  0  0  0  0  0
    4.4660   -0.1836    1.4005 C   0  0  0  0  0  0
    3.3816   -0.7895    0.9716 N   0  0  0  0  0  0
    5.8183    1.8566    1.9570 C   0  0  0  0  0  0
    5.6398    2.2632    3.3531 N   0  0  0  0  0  0
    6.6817    2.8956    4.0349 C   0  0  0  0  0  0
    6.5129    3.2812    5.3581 C   0  0  0  0  0  0
    7.5479    3.9084    6.0344 C   0  0  0  0  0  0
    8.7517    4.1508    5.3897 C   0  0  0  0  0  0
    8.9210    3.7664    4.0678 C   0  0  0  0  0  0
    7.8891    3.1339    3.3918 C   0  0  0  0  0  0
   10.1006    4.0052    3.4368 O   0  0  0  0  0  0
   11.1221    4.6557    4.1953 C   0  0  0  0  0  0
    7.3827    4.2863    7.3293 O   0  0  0  0  0  0
    8.4907    4.9274    7.9644 C   0  0  0  0  0  0
    3.5638    3.4762    1.1150 C   0  0  0  0  0  0
   -0.9640   -0.6635   -0.7014 N   0  0  0  0  0  0
    1.5508    3.8917    0.9394 H   0  0  0  0  0  0
    0.7683    3.8924   -0.5473 H   0  0  0  0  0  0
    5.3105   -0.7785    1.7157 H   0  0  0  0  0  0
    6.6456    1.1503    1.8873 H   0  0  0  0  0  0
    6.0373    2.7338    1.3482 H   0  0  0  0  0  0
    4.7978    2.0933    3.8038 H   0  0  0  0  0  0
    5.5754    3.0928    5.8602 H   0  0  0  0  0  0
    9.5576    4.6395    5.9171 H   0  0  0  0  0  0
    8.0226    2.8306    2.3639 H   0  0  0  0  0  0
   10.7641    5.6308    4.5257 H   0  0  0  0  0  0
   11.3728    4.0472    5.0642 H   0  0  0  0  0  0
   12.0087    4.7854    3.5746 H   0  0  0  0  0  0
    8.2262    5.1762    8.9921 H   0  0  0  0  0  0
    9.3491    4.2557    7.9625 H   0  0  0  0  0  0
    8.7418    5.8395    7.4229 H   0  0  0  0  0  0
    3.0931    3.8301    2.0322 H   0  0  0  0  0  0
    4.6068    3.7923    1.0967 H   0  0  0  0  0  0
    3.0422    3.8945    0.2542 H   0  0  0  0  0  0
   -1.7422   -0.1630   -0.9924 H   0  0  0  0  0  0
   -0.9752   -1.6332   -0.7228 H   0  0  0  0  0  0
  1  2  1  0  0  0
  1  6  2  0  0  0
  2  3  2  0  0  0
  2 25  1  0  0  0
  3  4  1  0  0  0
  4  5  2  0  0  0
  4 11  1  0  0  0
  5  6  1  0  0  0
  5  8  1  0  0  0
  6  7  1  0  0  0
  7 26  1  0  0  0
  7 27  1  0  0  0
  8  9  2  0  0  0
  8 24  1  0  0  0
  9 10  1  0  0  0
  9 12  1  0  0  0
 10 11  2  0  0  0
 10 28  1  0  0  0
 12 13  1  0  0  0
 12 29  1  0  0  0
 12 30  1  0  0  0
 13 14  1  0  0  0
 13 31  1  0  0  0
 14 15  1  0  0  0
 14 19  2  0  0  0
 15 16  2  0  0  0
 15 32  1  0  0  0
 16 17  1  0  0  0
 16 22  1  0  0  0
 17 18  2  0  0  0
 17 33  1  0  0  0
 18 19  1  0  0  0
 18 20  1  0  0  0
 19 34  1  0  0  0
 20 21  1  0  0  0
 21 35  1  0  0  0
 21 36  1  0  0  0
 21 37  1  0  0  0
 22 23  1  0  0  0
 23 38  1  0  0  0
 23 39  1  0  0  0
 23 40  1  0  0  0
 24 41  1  0  0  0
 24 42  1  0  0  0
 24 43  1  0  0  0
 25 44  1  0  0  0
 25 45  1  0  0  0
M  END
>  <Activity>
7.37161

>  <set_rl>
1

>  <Min_dist>
999.9

>  <Avg_dist>
999.9

>  <PC_uM>
0.0229

>  <TG_uM>
0.0048

>  <RL_uM>
0.0425

$$$$
24-2C
 Wcorina  11170919323D 1   1.00000     0.00000              
CORINA evaluation license 3.46 0067  05.08.2008
 45 47  0  0  0  0  0  0  0  0999 V2000
    0.1451    1.3345   -0.2391 N   0  0  0  0  0  0
    0.1606    0.0048   -0.2565 C   0  0  0  0  0  0
    1.2034   -0.7042    0.1331 N   0  0  0  0  0  0
    2.3148   -0.0963    0.5720 C   0  0  0  0  0  0
    2.3420    1.3195    0.6069 C   0  0  0  0  0  0
    1.1939    2.0298    0.1772 C   0  0  0  0  0  0
    1.1685    3.4071    0.1912 N   0  0  0  0  0  0
    3.4938    1.9718    1.0626 C   0  0  0  0  0  0
    4.5556    1.2020    1.4590 C   0  0  0  0  0  0
    4.4660   -0.1836    1.4005 C   0  0  0  0  0  0
    3.3816   -0.7895    0.9716 N   0  0  0  0  0  0
    5.8183    1.8566    1.9570 C   0  0  0  0  0  0
    5.6398    2.2632    3.3531 N   0  0  0  0  0  0
    6.6860    2.8982    4.0377 C   0  0  0  0  0  0
    7.8899    3.1415    3.3940 C   0  0  0  0  0  0
    8.9214    3.7670    4.0691 C   0  0  0  0  0  0
    8.7548    4.1523    5.3909 C   0  0  0  0  0  0
    7.5524    3.9115    6.0386 C   0  0  0  0  0  0
    6.5150    3.2902    5.3632 C   0  0  0  0  0  0
    5.3332    3.0582    5.9951 O   0  0  0  0  0  0
    5.2290    3.4872    7.3542 C   0  0  0  0  0  0
    9.7717    4.7667    6.0526 O   0  0  0  0  0  0
   10.9823    4.9829    5.3248 C   0  0  0  0  0  0
    3.5638    3.4762    1.1150 C   0  0  0  0  0  0
   -0.9640   -0.6635   -0.7014 N   0  0  0  0  0  0
    1.5508    3.8917    0.9394 H   0  0  0  0  0  0
    0.7683    3.8924   -0.5473 H   0  0  0  0  0  0
    5.3105   -0.7785    1.7157 H   0  0  0  0  0  0
    6.6456    1.1503    1.8873 H   0  0  0  0  0  0
    6.0373    2.7338    1.3482 H   0  0  0  0  0  0
    4.7978    2.0933    3.8038 H   0  0  0  0  0  0
    8.0219    2.8419    2.3648 H   0  0  0  0  0  0
    9.8585    3.9555    3.5665 H   0  0  0  0  0  0
    7.4237    4.2117    7.0681 H   0  0  0  0  0  0
    5.9859    2.9816    7.9538 H   0  0  0  0  0  0
    5.3832    4.5649    7.4078 H   0  0  0  0  0  0
    4.2385    3.2423    7.7376 H   0  0  0  0  0  0
   11.7089    5.4797    5.9677 H   0  0  0  0  0  0
   11.3840    4.0248    4.9950 H   0  0  0  0  0  0
   10.7773    5.6092    4.4565 H   0  0  0  0  0  0
    3.0931    3.8301    2.0322 H   0  0  0  0  0  0
    4.6068    3.7923    1.0967 H   0  0  0  0  0  0
    3.0422    3.8945    0.2542 H   0  0  0  0  0  0
   -1.7422   -0.1630   -0.9924 H   0  0  0  0  0  0
   -0.9752   -1.6332   -0.7228 H   0  0  0  0  0  0
  1  2  1  0  0  0
  1  6  2  0  0  0
  2  3  2  0  0  0
  2 25  1  0  0  0
  3  4  1  0  0  0
  4  5  2  0  0  0
  4 11  1  0  0  0
  5  6  1  0  0  0
  5  8  1  0  0  0
  6  7  1  0  0  0
  7 26  1  0  0  0
  7 27  1  0  0  0
  8  9  2  0  0  0
  8 24  1  0  0  0
  9 10  1  0  0  0
  9 12  1  0  0  0
 10 11  2  0  0  0
 10 28  1  0  0  0
 12 13  1  0  0  0
 12 29  1  0  0  0
 12 30  1  0  0  0
 13 14  1  0  0  0
 13 31  1  0  0  0
 14 15  1  0  0  0
 14 19  2  0  0  0
 15 16  2  0  0  0
 15 32  1  0  0  0
 16 17  1  0  0  0
 16 33  1  0  0  0
 17 18  2  0  0  0
 17 22  1  0  0  0
 18 19  1  0  0  0
 18 34  1  0  0  0
 19 20  1  0  0  0
 20 21  1  0  0  0
 21 35  1  0  0  0
 21 36  1  0  0  0
 21 37  1  0  0  0
 22 23  1  0  0  0
 23 38  1  0  0  0
 23 39  1  0  0  0
 23 40  1  0  0  0
 24 41  1  0  0  0
 24 42  1  0  0  0
 24 43  1  0  0  0
 25 44  1  0  0  0
 25 45  1  0  0  0
M  END
>  <Activity>
6.66959

>  <set_rl>
1

>  <Min_dist>
999.9

>  <Avg_dist>
999.9

>  <PC_uM>
0.316

>  <TG_uM>
0.0565

>  <RL_uM>
0.214

$$$$
24-2D
 Wcorina  11170919323D 1   1.00000     0.00000              
CORINA evaluation license 3.46 0067  05.08.2008
 45 47  0  0  0  0  0  0  0  0999 V2000
    0.1451    1.3345   -0.2391 N   0  0  0  0  0  0
    0.1606    0.0048   -0.2565 C   0  0  0  0  0  0
    1.2034   -0.7042    0.1331 N   0  0  0  0  0  0
    2.3148   -0.0963    0.5720 C   0  0  0  0  0  0
    2.3420    1.3195    0.6069 C   0  0  0  0  0  0
    1.1939    2.0298    0.1772 C   0  0  0  0  0  0
    1.1685    3.4071    0.1912 N   0  0  0  0  0  0
    3.4938    1.9718    1.0626 C   0  0  0  0  0  0
    4.5556    1.2020    1.4590 C   0  0  0  0  0  0
    4.4660   -0.1836    1.4005 C   0  0  0  0  0  0
    3.3816   -0.7895    0.9716 N   0  0  0  0  0  0
    5.8183    1.8566    1.9570 C   0  0  0  0  0  0
    5.6398    2.2632    3.3531 N   0  0  0  0  0  0
    6.6837    2.8968    4.0362 C   0  0  0  0  0  0
    7.8890    3.1401    3.3909 C   0  0  0  0  0  0
    8.9212    3.7653    4.0645 C   0  0  0  0  0  0
    8.7557    4.1507    5.3849 C   0  0  0  0  0  0
    7.5493    3.9083    6.0343 C   0  0  0  0  0  0
    6.5125    3.2872    5.3574 C   0  0  0  0  0  0
    7.3864    4.2854    7.3307 O   0  0  0  0  0  0
    6.1216    4.0050    7.9339 C   0  0  0  0  0  0
    9.7733    4.7658    6.0469 O   0  0  0  0  0  0
   10.9836    4.9824    5.3188 C   0  0  0  0  0  0
    3.5638    3.4762    1.1150 C   0  0  0  0  0  0
   -0.9640   -0.6635   -0.7014 N   0  0  0  0  0  0
    1.5508    3.8917    0.9394 H   0  0  0  0  0  0
    0.7683    3.8924   -0.5473 H   0  0  0  0  0  0
    5.3105   -0.7785    1.7157 H   0  0  0  0  0  0
    6.6456    1.1503    1.8873 H   0  0  0  0  0  0
    6.0373    2.7338    1.3482 H   0  0  0  0  0  0
    4.7978    2.0933    3.8038 H   0  0  0  0  0  0
    8.0200    2.8401    2.3617 H   0  0  0  0  0  0
    9.8580    3.9534    3.5611 H   0  0  0  0  0  0
    5.5738    3.1023    5.8585 H   0  0  0  0  0  0
    6.1253    4.3563    8.9657 H   0  0  0  0  0  0
    5.3336    4.5147    7.3794 H   0  0  0  0  0  0
    5.9411    2.9302    7.9166 H   0  0  0  0  0  0
   11.7103    5.4795    5.9615 H   0  0  0  0  0  0
   11.3856    4.0244    4.9890 H   0  0  0  0  0  0
   10.7783    5.6086    4.4505 H   0  0  0  0  0  0
    3.0931    3.8301    2.0322 H   0  0  0  0  0  0
    4.6068    3.7923    1.0967 H   0  0  0  0  0  0
    3.0422    3.8945    0.2542 H   0  0  0  0  0  0
   -1.7422   -0.1630   -0.9924 H   0  0  0  0  0  0
   -0.9752   -1.6332   -0.7228 H   0  0  0  0  0  0
  1  2  1  0  0  0
  1  6  2  0  0  0
  2  3  2  0  0  0
  2 25  1  0  0  0
  3  4  1  0  0  0
  4  5  2  0  0  0
  4 11  1  0  0  0
  5  6  1  0  0  0
  5  8  1  0  0  0
  6  7  1  0  0  0
  7 26  1  0  0  0
  7 27  1  0  0  0
  8  9  2  0  0  0
  8 24  1  0  0  0
  9 10  1  0  0  0
  9 12  1  0  0  0
 10 11  2  0  0  0
 10 28  1  0  0  0
 12 13  1  0  0  0
 12 29  1  0  0  0
 12 30  1  0  0  0
 13 14  1  0  0  0
 13 31  1  0  0  0
 14 15  1  0  0  0
 14 19  2  0  0  0
 15 16  2  0  0  0
 15 32  1  0  0  0
 16 17  1  0  0  0
 16 33  1  0  0  0
 17 18  2  0  0  0
 17 22  1  0  0  0
 18 19  1  0  0  0
 18 20  1  0  0  0
 19 34  1  0  0  0
 20 21  1  0  0  0
 21 35  1  0  0  0
 21 36  1  0  0  0
 21 37  1  0  0  0
 22 23  1  0  0  0
 23 38  1  0  0  0
 23 39  1  0  0  0
 23 40  1  0  0  0
 24 41  1  0  0  0
 24 42  1  0  0  0
 24 43  1  0  0  0
 25 44  1  0  0  0
 25 45  1  0  0  0
M  END
>  <Activity>
8.11919

>  <set_rl>
1

>  <Min_dist>
999.9

>  <Avg_dist>
999.9

>  <PC_uM>
0.044

>  <TG_uM>
0.0088

>  <RL_uM>
0.0076

$$$$
24-2E
 Wcorina  11170919323D 1   1.00000     0.00000              
CORINA evaluation license 3.46 0067  05.08.2008
 51 53  0  0  0  0  0  0  0  0999 V2000
    0.1451    1.3345   -0.2391 N   0  0  0  0  0  0
    0.1606    0.0048   -0.2565 C   0  0  0  0  0  0
    1.2034   -0.7042    0.1331 N   0  0  0  0  0  0
    2.3148   -0.0963    0.5720 C   0  0  0  0  0  0
    2.3420    1.3195    0.6069 C   0  0  0  0  0  0
    1.1939    2.0298    0.1772 C   0  0  0  0  0  0
    1.1685    3.4071    0.1912 N   0  0  0  0  0  0
    3.4938    1.9718    1.0626 C   0  0  0  0  0  0
    4.5556    1.2020    1.4590 C   0  0  0  0  0  0
    4.4660   -0.1836    1.4005 C   0  0  0  0  0  0
    3.3816   -0.7895    0.9716 N   0  0  0  0  0  0
    5.8183    1.8566    1.9570 C   0  0  0  0  0  0
    5.6398    2.2632    3.3531 N   0  0  0  0  0  0
    6.6839    2.8969    4.0363 C   0  0  0  0  0  0
    7.8883    3.1406    3.3930 C   0  0  0  0  0  0
    8.9206    3.7689    4.0724 C   0  0  0  0  0  0
    8.7497    4.1532    5.3942 C   0  0  0  0  0  0
    7.5501    3.9109    6.0376 C   0  0  0  0  0  0
    6.5135    3.2893    5.3620 C   0  0  0  0  0  0
    5.3310    3.0568    5.9944 O   0  0  0  0  0  0
    5.2268    3.4859    7.3534 C   0  0  0  0  0  0
    3.8366    3.1417    7.8917 C   0  0  0  0  0  0
   10.1018    4.0083    3.4427 O   0  0  0  0  0  0
   11.1219    4.6594    4.2026 C   0  0  0  0  0  0
   12.3676    4.8418    3.3331 C   0  0  0  0  0  0
    3.5638    3.4762    1.1150 C   0  0  0  0  0  0
   -0.9640   -0.6635   -0.7014 N   0  0  0  0  0  0
    1.5508    3.8917    0.9394 H   0  0  0  0  0  0
    0.7683    3.8924   -0.5473 H   0  0  0  0  0  0
    5.3105   -0.7785    1.7157 H   0  0  0  0  0  0
    6.6456    1.1503    1.8873 H   0  0  0  0  0  0
    6.0373    2.7338    1.3482 H   0  0  0  0  0  0
    4.7978    2.0933    3.8038 H   0  0  0  0  0  0
    8.0219    2.8408    2.3641 H   0  0  0  0  0  0
    9.5552    4.6423    5.9218 H   0  0  0  0  0  0
    7.4199    4.2109    7.0669 H   0  0  0  0  0  0
    5.9839    2.9806    7.9531 H   0  0  0  0  0  0
    5.3806    4.5636    7.4070 H   0  0  0  0  0  0
    3.6828    2.0640    7.8382 H   0  0  0  0  0  0
    3.7571    3.4690    8.9284 H   0  0  0  0  0  0
    3.0795    3.6470    7.2921 H   0  0  0  0  0  0
   10.7630    5.6343    4.5323 H   0  0  0  0  0  0
   11.3715    4.0511    5.0719 H   0  0  0  0  0  0
   12.1179    5.4501    2.4638 H   0  0  0  0  0  0
   13.1457    5.3384    3.9128 H   0  0  0  0  0  0
   12.7265    3.8668    3.0034 H   0  0  0  0  0  0
    3.0931    3.8301    2.0322 H   0  0  0  0  0  0
    4.6068    3.7923    1.0967 H   0  0  0  0  0  0
    3.0422    3.8945    0.2542 H   0  0  0  0  0  0
   -1.7422   -0.1630   -0.9924 H   0  0  0  0  0  0
   -0.9752   -1.6332   -0.7228 H   0  0  0  0  0  0
  1  2  1  0  0  0
  1  6  2  0  0  0
  2  3  2  0  0  0
  2 27  1  0  0  0
  3  4  1  0  0  0
  4  5  2  0  0  0
  4 11  1  0  0  0
  5  6  1  0  0  0
  5  8  1  0  0  0
  6  7  1  0  0  0
  7 28  1  0  0  0
  7 29  1  0  0  0
  8  9  2  0  0  0
  8 26  1  0  0  0
  9 10  1  0  0  0
  9 12  1  0  0  0
 10 11  2  0  0  0
 10 30  1  0  0  0
 12 13  1  0  0  0
 12 31  1  0  0  0
 12 32  1  0  0  0
 13 14  1  0  0  0
 13 33  1  0  0  0
 14 15  1  0  0  0
 14 19  2  0  0  0
 15 16  2  0  0  0
 15 34  1  0  0  0
 16 17  1  0  0  0
 16 23  1  0  0  0
 17 18  2  0  0  0
 17 35  1  0  0  0
 18 19  1  0  0  0
 18 36  1  0  0  0
 19 20  1  0  0  0
 20 21  1  0  0  0
 21 22  1  0  0  0
 21 37  1  0  0  0
 21 38  1  0  0  0
 22 39  1  0  0  0
 22 40  1  0  0  0
 22 41  1  0  0  0
 23 24  1  0  0  0
 24 25  1  0  0  0
 24 42  1  0  0  0
 24 43  1  0  0  0
 25 44  1  0  0  0
 25 45  1  0  0  0
 25 46  1  0  0  0
 26 47  1  0  0  0
 26 48  1  0  0  0
 26 49  1  0  0  0
 27 50  1  0  0  0
 27 51  1  0  0  0
M  END
>  <Activity>
7.75945

>  <set_rl>
1

>  <Min_dist>
999.9

>  <Avg_dist>
999.9

>  <PC_uM>
0.0767

>  <TG_uM>
0.017

>  <RL_uM>
0.0174

$$$$
24-3A
 Wcorina  11170919323D 1   1.00000     0.00000              
CORINA evaluation license 3.46 0067  05.08.2008
 48 50  0  0  0  0  0  0  0  0999 V2000
    2.6297   -2.8876    1.2125 N   0  0  0  0  0  0
    1.5021   -2.2819    0.8518 C   0  0  0  0  0  0
    1.4795   -1.2120    0.0793 N   0  0  0  0  0  0
    2.6206   -0.6812   -0.3826 C   0  0  0  0  0  0
    3.8458   -1.2944   -0.0226 C   0  0  0  0  0  0
    3.8106   -2.4411    0.8088 C   0  0  0  0  0  0
    4.9734   -3.0751    1.1881 N   0  0  0  0  0  0
    5.0475   -0.7545   -0.4959 C   0  0  0  0  0  0
    4.9837    0.3562   -1.2956 C   0  0  0  0  0  0
    3.7495    0.9109   -1.6126 C   0  0  0  0  0  0
    2.6251    0.3988   -1.1648 N   0  0  0  0  0  0
    6.2494    0.9754   -1.8300 C   0  0  0  0  0  0
    6.9058    1.7448   -0.7646 N   0  0  0  0  0  0
    8.2342    2.0319   -1.0989 C   0  0  0  0  0  0
    8.5201    2.7702   -2.2377 C   0  0  0  0  0  0
    9.8370    3.0534   -2.5659 C   0  0  0  0  0  0
   10.8677    2.5985   -1.7568 C   0  0  0  0  0  0
   10.5851    1.8619   -0.6213 C   0  0  0  0  0  0
    9.2713    1.5815   -0.2853 C   0  0  0  0  0  0
    8.9939    0.8616    0.8358 O   0  0  0  0  0  0
   10.1066    0.4322    1.6229 C   0  0  0  0  0  0
   10.1184    3.7771   -3.6821 O   0  0  0  0  0  0
   11.4969    4.0318   -3.9598 C   0  0  0  0  0  0
    6.1600    2.9751   -0.4678 C   0  0  0  0  0  0
    6.3722   -1.3762   -0.1359 C   0  0  0  0  0  0
    0.3019   -2.7952    1.3051 N   0  0  0  0  0  0
    5.6895   -3.1999    0.5458 H   0  0  0  0  0  0
    5.0760   -3.3967    2.0974 H   0  0  0  0  0  0
    3.7135    1.7866   -2.2436 H   0  0  0  0  0  0
    6.9203    0.1892   -2.1766 H   0  0  0  0  0  0
    6.0070    1.6384   -2.6605 H   0  0  0  0  0  0
    7.7178    3.1239   -2.8682 H   0  0  0  0  0  0
   11.8929    2.8199   -2.0143 H   0  0  0  0  0  0
   11.3896    1.5087    0.0067 H   0  0  0  0  0  0
   10.7547   -0.2035    1.0196 H   0  0  0  0  0  0
   10.6672    1.3022    1.9648 H   0  0  0  0  0  0
    9.7467   -0.1297    2.4848 H   0  0  0  0  0  0
   12.0233    3.0854   -4.0839 H   0  0  0  0  0  0
   11.5809    4.6171   -4.8754 H   0  0  0  0  0  0
   11.9378    4.5870   -3.1319 H   0  0  0  0  0  0
    5.1892    2.7182   -0.0442 H   0  0  0  0  0  0
    6.7210    3.5764    0.2476 H   0  0  0  0  0  0
    6.0165    3.5437   -1.3867 H   0  0  0  0  0  0
    6.5738   -2.2139   -0.8036 H   0  0  0  0  0  0
    7.1623   -0.6323   -0.2376 H   0  0  0  0  0  0
    6.3387   -1.7323    0.8937 H   0  0  0  0  0  0
    0.2944   -3.5810    1.8737 H   0  0  0  0  0  0
   -0.5330   -2.3697    1.0547 H   0  0  0  0  0  0
  1  2  1  0  0  0
  1  6  2  0  0  0
  2  3  2  0  0  0
  2 26  1  0  0  0
  3  4  1  0  0  0
  4  5  2  0  0  0
  4 11  1  0  0  0
  5  6  1  0  0  0
  5  8  1  0  0  0
  6  7  1  0  0  0
  7 27  1  0  0  0
  7 28  1  0  0  0
  8  9  2  0  0  0
  8 25  1  0  0  0
  9 10  1  0  0  0
  9 12  1  0  0  0
 10 11  2  0  0  0
 10 29  1  0  0  0
 12 13  1  0  0  0
 12 30  1  0  0  0
 12 31  1  0  0  0
 13 14  1  0  0  0
 13 24  1  0  0  0
 14 15  1  0  0  0
 14 19  2  0  0  0
 15 16  2  0  0  0
 15 32  1  0  0  0
 16 17  1  0  0  0
 16 22  1  0  0  0
 17 18  2  0  0  0
 17 33  1  0  0  0
 18 19  1  0  0  0
 18 34  1  0  0  0
 19 20  1  0  0  0
 20 21  1  0  0  0
 21 35  1  0  0  0
 21 36  1  0  0  0
 21 37  1  0  0  0
 22 23  1  0  0  0
 23 38  1  0  0  0
 23 39  1  0  0  0
 23 40  1  0  0  0
 24 41  1  0  0  0
 24 42  1  0  0  0
 24 43  1  0  0  0
 25 44  1  0  0  0
 25 45  1  0  0  0
 25 46  1  0  0  0
 26 47  1  0  0  0
 26 48  1  0  0  0
M  END
>  <Activity>
6.39041

>  <set_rl>
1

>  <Min_dist>
999.9

>  <Avg_dist>
999.9

>  <PC_uM>
0.216

>  <TG_uM>
0.0301

>  <RL_uM>
0.407

$$$$
24-4C
 Wcorina  11170919323D 1   1.00000     0.00000              
CORINA evaluation license 3.46 0067  05.08.2008
 55 57  0  0  0  0  0  0  0  0999 V2000
    9.3176    3.0413   -5.9032 N   0  0  0  0  0  0
   10.4081    3.5460   -5.3334 C   0  0  0  0  0  0
   10.4110    4.0487   -4.1131 N   0  0  0  0  0  0
    9.2869    4.0707   -3.3829 C   0  0  0  0  0  0
    8.1012    3.5436   -3.9511 C   0  0  0  0  0  0
    8.1562    3.0162   -5.2650 C   0  0  0  0  0  0
    7.0318    2.4917   -5.8637 N   0  0  0  0  0  0
    6.9179    3.5576   -3.2034 C   0  0  0  0  0  0
    6.9603    4.0871   -1.9405 C   0  0  0  0  0  0
    8.1559    4.5889   -1.4402 C   0  0  0  0  0  0
    9.2632    4.5725   -2.1476 N   0  0  0  0  0  0
    5.7129    4.1258   -1.0957 C   0  0  0  0  0  0
    6.0514    4.5830    0.2543 N   0  0  0  0  0  0
    6.5170    3.6695    1.2061 C   0  0  0  0  0  0
    6.8376    4.1032    2.4854 C   0  0  0  0  0  0
    7.2990    3.1986    3.4290 C   0  0  0  0  0  0
    7.4405    1.8573    3.0942 C   0  0  0  0  0  0
    7.1193    1.4239    1.8135 C   0  0  0  0  0  0
    6.6527    2.3287    0.8726 C   0  0  0  0  0  0
    7.2575    0.1115    1.4850 O   0  0  0  0  0  0
    6.9089   -0.2635    0.1509 C   0  0  0  0  0  0
    7.8941    0.9681    4.0206 O   0  0  0  0  0  0
    6.9135    0.3246    4.8369 C   0  0  0  0  0  0
    7.6135    3.6237    4.6819 O   0  0  0  0  0  0
    7.4442    5.0158    4.9562 C   0  0  0  0  0  0
    5.9024    5.9970    0.6076 C   0  0  0  0  0  0
    4.5440    6.2149    1.2772 C   0  0  0  0  0  0
    5.6350    3.0071   -3.7711 C   0  0  0  0  0  0
   11.5896    3.5437   -6.0500 N   0  0  0  0  0  0
    6.8070    2.7392   -6.7743 H   0  0  0  0  0  0
    6.4650    1.8749   -5.3747 H   0  0  0  0  0  0
    8.1754    5.0038   -0.4432 H   0  0  0  0  0  0
    4.9931    4.8119   -1.5419 H   0  0  0  0  0  0
    5.2788    3.1273   -1.0430 H   0  0  0  0  0  0
    6.7280    5.1457    2.7453 H   0  0  0  0  0  0
    6.3985    1.9912   -0.1213 H   0  0  0  0  0  0
    5.8612   -0.0246   -0.0317 H   0  0  0  0  0  0
    7.5344    0.2826   -0.5552 H   0  0  0  0  0  0
    7.0651   -1.3345    0.0219 H   0  0  0  0  0  0
    6.3590    1.0760    5.3991 H   0  0  0  0  0  0
    6.2258   -0.2367    4.2043 H   0  0  0  0  0  0
    7.4076   -0.3563    5.5299 H   0  0  0  0  0  0
    7.7299    5.2202    5.9880 H   0  0  0  0  0  0
    8.0734    5.5980    4.2829 H   0  0  0  0  0  0
    6.4002    5.2913    4.8069 H   0  0  0  0  0  0
    6.6971    6.2852    1.2957 H   0  0  0  0  0  0
    5.9645    6.6054   -0.2946 H   0  0  0  0  0  0
    4.4689    7.2472    1.6189 H   0  0  0  0  0  0
    3.7487    6.0107    0.5604 H   0  0  0  0  0  0
    4.4468    5.5421    2.1292 H   0  0  0  0  0  0
    5.6264    1.9224   -3.6642 H   0  0  0  0  0  0
    4.7877    3.4320   -3.2328 H   0  0  0  0  0  0
    5.5630    3.2688   -4.8268 H   0  0  0  0  0  0
   11.6111    3.1791   -6.9486 H   0  0  0  0  0  0
   12.3974    3.9067   -5.6545 H   0  0  0  0  0  0
  1  2  1  0  0  0
  1  6  2  0  0  0
  2  3  2  0  0  0
  2 29  1  0  0  0
  3  4  1  0  0  0
  4  5  2  0  0  0
  4 11  1  0  0  0
  5  6  1  0  0  0
  5  8  1  0  0  0
  6  7  1  0  0  0
  7 30  1  0  0  0
  7 31  1  0  0  0
  8  9  2  0  0  0
  8 28  1  0  0  0
  9 10  1  0  0  0
  9 12  1  0  0  0
 10 11  2  0  0  0
 10 32  1  0  0  0
 12 13  1  0  0  0
 12 33  1  0  0  0
 12 34  1  0  0  0
 13 14  1  0  0  0
 13 26  1  0  0  0
 14 15  1  0  0  0
 14 19  2  0  0  0
 15 16  2  0  0  0
 15 35  1  0  0  0
 16 17  1  0  0  0
 16 24  1  0  0  0
 17 18  2  0  0  0
 17 22  1  0  0  0
 18 19  1  0  0  0
 18 20  1  0  0  0
 19 36  1  0  0  0
 20 21  1  0  0  0
 21 37  1  0  0  0
 21 38  1  0  0  0
 21 39  1  0  0  0
 22 23  1  0  0  0
 23 40  1  0  0  0
 23 41  1  0  0  0
 23 42  1  0  0  0
 24 25  1  0  0  0
 25 43  1  0  0  0
 25 44  1  0  0  0
 25 45  1  0  0  0
 26 27  1  0  0  0
 26 46  1  0  0  0
 26 47  1  0  0  0
 27 48  1  0  0  0
 27 49  1  0  0  0
 27 50  1  0  0  0
 28 51  1  0  0  0
 28 52  1  0  0  0
 28 53  1  0  0  0
 29 54  1  0  0  0
 29 55  1  0  0  0
M  END
>  <Activity>
7.97881

>  <set_rl>
1

>  <Min_dist>
999.9

>  <Avg_dist>
999.9

>  <PC_uM>
0.0497

>  <TG_uM>
0.0027

>  <RL_uM>
0.0105

$$$$
24-5A
 Wcorina  11170919323D 1   1.00000     0.00000              
CORINA evaluation license 3.46 0067  05.08.2008
 43 46  0  0  0  0  0  0  0  0999 V2000
    0.1451    1.3345   -0.2391 N   0  0  0  0  0  0
    0.1606    0.0048   -0.2565 C   0  0  0  0  0  0
    1.2034   -0.7042    0.1331 N   0  0  0  0  0  0
    2.3148   -0.0963    0.5720 C   0  0  0  0  0  0
    2.3420    1.3195    0.6069 C   0  0  0  0  0  0
    1.1939    2.0298    0.1772 C   0  0  0  0  0  0
    1.1685    3.4071    0.1912 N   0  0  0  0  0  0
    3.4938    1.9718    1.0626 C   0  0  0  0  0  0
    4.5556    1.2020    1.4590 C   0  0  0  0  0  0
    4.4660   -0.1836    1.4005 C   0  0  0  0  0  0
    3.3816   -0.7895    0.9716 N   0  0  0  0  0  0
    5.8183    1.8566    1.9570 C   0  0  0  0  0  0
    5.6398    2.2632    3.3531 N   0  0  0  0  0  0
    6.6792    2.8941    4.0333 C   0  0  0  0  0  0
    7.8786    3.1387    3.3986 C   0  0  0  0  0  0
    8.9228    3.7680    4.0692 C   0  0  0  0  0  0
    8.7909    4.1586    5.3670 C   0  0  0  0  0  0
    7.5849    3.9279    6.0503 C   0  0  0  0  0  0
    6.5121    3.2937    5.3766 C   0  0  0  0  0  0
    5.3059    3.0697    6.0584 C   0  0  0  0  0  0
    5.1798    3.4690    7.3540 C   0  0  0  0  0  0
    6.2321    4.0988    8.0157 C   0  0  0  0  0  0
    7.4203    4.3207    7.3900 C   0  0  0  0  0  0
    3.5638    3.4762    1.1150 C   0  0  0  0  0  0
   -0.9640   -0.6635   -0.7014 N   0  0  0  0  0  0
    1.5508    3.8917    0.9394 H   0  0  0  0  0  0
    0.7683    3.8924   -0.5473 H   0  0  0  0  0  0
    5.3105   -0.7785    1.7157 H   0  0  0  0  0  0
    6.6456    1.1503    1.8873 H   0  0  0  0  0  0
    6.0373    2.7338    1.3482 H   0  0  0  0  0  0
    4.7978    2.0933    3.8038 H   0  0  0  0  0  0
    8.0091    2.8382    2.3695 H   0  0  0  0  0  0
    9.8533    3.9494    3.5519 H   0  0  0  0  0  0
    9.6130    4.6450    5.8711 H   0  0  0  0  0  0
    4.4817    2.5834    5.5577 H   0  0  0  0  0  0
    4.2505    3.2955    7.8763 H   0  0  0  0  0  0
    6.1064    4.4061    9.0434 H   0  0  0  0  0  0
    8.2276    4.8089    7.9156 H   0  0  0  0  0  0
    3.0931    3.8301    2.0322 H   0  0  0  0  0  0
    4.6068    3.7923    1.0967 H   0  0  0  0  0  0
    3.0422    3.8945    0.2542 H   0  0  0  0  0  0
   -1.7422   -0.1630   -0.9924 H   0  0  0  0  0  0
   -0.9752   -1.6332   -0.7228 H   0  0  0  0  0  0
  1  2  1  0  0  0
  1  6  2  0  0  0
  2  3  2  0  0  0
  2 25  1  0  0  0
  3  4  1  0  0  0
  4  5  2  0  0  0
  4 11  1  0  0  0
  5  6  1  0  0  0
  5  8  1  0  0  0
  6  7  1  0  0  0
  7 26  1  0  0  0
  7 27  1  0  0  0
  8  9  2  0  0  0
  8 24  1  0  0  0
  9 10  1  0  0  0
  9 12  1  0  0  0
 10 11  2  0  0  0
 10 28  1  0  0  0
 12 13  1  0  0  0
 12 29  1  0  0  0
 12 30  1  0  0  0
 13 14  1  0  0  0
 13 31  1  0  0  0
 14 15  1  0  0  0
 14 19  2  0  0  0
 15 16  2  0  0  0
 15 32  1  0  0  0
 16 17  1  0  0  0
 16 33  1  0  0  0
 17 18  2  0  0  0
 17 34  1  0  0  0
 18 19  1  0  0  0
 18 23  1  0  0  0
 19 20  1  0  0  0
 20 21  2  0  0  0
 20 35  1  0  0  0
 21 22  1  0  0  0
 21 36  1  0  0  0
 22 23  2  0  0  0
 22 37  1  0  0  0
 23 38  1  0  0  0
 24 39  1  0  0  0
 24 40  1  0  0  0
 24 41  1  0  0  0
 25 42  1  0  0  0
 25 43  1  0  0  0
M  END
>  <Activity>
7.52871

>  <set_rl>
1

>  <Min_dist>
999.9

>  <Avg_dist>
999.9

>  <PC_uM>
0.573

>  <TG_uM>
0.0145

>  <RL_uM>
0.0296

$$$$
9-14H
 Wcorina  11170919323D 1   1.00000     0.00000              
CORINA evaluation license 3.46 0067  05.08.2008
 48 50  0  0  0  0  0  0  0  0999 V2000
    0.1104    1.3327   -0.2494 N   0  0  0  0  0  0
    0.1273    0.0031   -0.2664 C   0  0  0  0  0  0
    1.1709   -0.7048    0.1231 N   0  0  0  0  0  0
    2.2818   -0.0956    0.5614 C   0  0  0  0  0  0
    2.3076    1.3202    0.5959 C   0  0  0  0  0  0
    1.1587    2.0293    0.1663 C   0  0  0  0  0  0
    1.1319    3.4065    0.1799 N   0  0  0  0  0  0
    3.4588    1.9738    1.0510 C   0  0  0  0  0  0
    4.5216    1.2052    1.4473 C   0  0  0  0  0  0
    4.4334   -0.1805    1.3893 C   0  0  0  0  0  0
    3.3494   -0.7876    0.9609 N   0  0  0  0  0  0
    5.7838    1.8612    1.9448 C   0  0  0  0  0  0
    5.6052    2.2681    3.3408 N   0  0  0  0  0  0
    5.9353    1.3849    4.3746 C   0  0  0  0  0  0
    6.4320    0.1227    4.0774 C   0  0  0  0  0  0
    6.7580   -0.7511    5.0975 C   0  0  0  0  0  0
    6.5899   -0.3695    6.4186 C   0  0  0  0  0  0
    6.0923    0.8945    6.7197 C   0  0  0  0  0  0
    5.7714    1.7725    5.6975 C   0  0  0  0  0  0
    5.9261    1.2694    8.0163 O   0  0  0  0  0  0
    5.4109    2.5814    8.2513 C   0  0  0  0  0  0
    6.9109   -1.2312    7.4219 O   0  0  0  0  0  0
    7.4158   -2.5123    7.0400 C   0  0  0  0  0  0
    5.0811    3.5997    3.6543 C   0  0  0  0  0  0
    3.5274    3.4783    1.1030 C   0  0  0  0  0  0
   -0.9968   -0.6665   -0.7108 N   0  0  0  0  0  0
    1.5140    3.8917    0.9278 H   0  0  0  0  0  0
    0.7309    3.8911   -0.5586 H   0  0  0  0  0  0
    5.2785   -0.7745    1.7044 H   0  0  0  0  0  0
    6.6117    1.1557    1.8750 H   0  0  0  0  0  0
    6.0017    2.7385    1.3357 H   0  0  0  0  0  0
    6.5635   -0.1767    3.0481 H   0  0  0  0  0  0
    7.1439   -1.7325    4.8644 H   0  0  0  0  0  0
    5.3893    2.7557    5.9294 H   0  0  0  0  0  0
    5.3277    2.7522    9.3247 H   0  0  0  0  0  0
    6.0851    3.3197    7.8171 H   0  0  0  0  0  0
    4.4269    2.6731    7.7915 H   0  0  0  0  0  0
    8.3298   -2.3845    6.4600 H   0  0  0  0  0  0
    7.6312   -3.0989    7.9331 H   0  0  0  0  0  0
    6.6715   -3.0308    6.4356 H   0  0  0  0  0  0
    3.9939    3.5564    3.7185 H   0  0  0  0  0  0
    5.4884    3.9351    4.6081 H   0  0  0  0  0  0
    5.3712    4.2984    2.8696 H   0  0  0  0  0  0
    3.0562    3.8321    2.0200 H   0  0  0  0  0  0
    4.5701    3.7954    1.0846 H   0  0  0  0  0  0
    3.0055    3.8958    0.2420 H   0  0  0  0  0  0
   -1.7757   -0.1668   -1.0017 H   0  0  0  0  0  0
   -1.0070   -1.6362   -0.7319 H   0  0  0  0  0  0
  1  2  1  0  0  0
  1  6  2  0  0  0
  2  3  2  0  0  0
  2 26  1  0  0  0
  3  4  1  0  0  0
  4  5  2  0  0  0
  4 11  1  0  0  0
  5  6  1  0  0  0
  5  8  1  0  0  0
  6  7  1  0  0  0
  7 27  1  0  0  0
  7 28  1  0  0  0
  8  9  2  0  0  0
  8 25  1  0  0  0
  9 10  1  0  0  0
  9 12  1  0  0  0
 10 11  2  0  0  0
 10 29  1  0  0  0
 12 13  1  0  0  0
 12 30  1  0  0  0
 12 31  1  0  0  0
 13 14  1  0  0  0
 13 24  1  0  0  0
 14 15  1  0  0  0
 14 19  2  0  0  0
 15 16  2  0  0  0
 15 32  1  0  0  0
 16 17  1  0  0  0
 16 33  1  0  0  0
 17 18  2  0  0  0
 17 22  1  0  0  0
 18 19  1  0  0  0
 18 20  1  0  0  0
 19 34  1  0  0  0
 20 21  1  0  0  0
 21 35  1  0  0  0
 21 36  1  0  0  0
 21 37  1  0  0  0
 22 23  1  0  0  0
 23 38  1  0  0  0
 23 39  1  0  0  0
 23 40  1  0  0  0
 24 41  1  0  0  0
 24 42  1  0  0  0
 24 43  1  0  0  0
 25 44  1  0  0  0
 25 45  1  0  0  0
 25 46  1  0  0  0
 26 47  1  0  0  0
 26 48  1  0  0  0
M  END
>  <Activity>
8.35655

>  <set_rl>
1

>  <Min_dist>
999.9

>  <Avg_dist>
999.9

>  <PC_uM>
0.32

>  <TG_uM>
0.0029

>  <RL_uM>
0.0044

$$$$
25-11
 Wcorina  11170919323D 1   1.00000     0.00000              
CORINA evaluation license 3.46 0067  05.08.2008
 46 48  0  0  0  0  0  0  0  0999 V2000
   -0.0160    1.3259    0.0093 N   0  0  0  0  0  0
    0.0021   -0.0041    0.0020 C   0  0  0  0  0  0
    1.1196   -0.7048   -0.0124 N   0  0  0  0  0  0
    2.3114   -0.0881   -0.0205 C   0  0  0  0  0  0
    2.3382    1.3279   -0.0131 C   0  0  0  0  0  0
    1.1072    2.0292    0.0024 C   0  0  0  0  0  0
    1.0785    3.4072    0.0096 N   0  0  0  0  0  0
    3.5707    1.9919   -0.0208 C   0  0  0  0  0  0
    4.7220    1.2213   -0.0355 C   0  0  0  0  0  0
    4.6188   -0.1712   -0.0421 C   0  0  0  0  0  0
    3.4531   -0.7762   -0.0346 N   0  0  0  0  0  0
    5.9799    1.8345   -0.0442 N   0  0  0  0  0  0
    7.1941    1.0150   -0.0597 C   0  0  0  0  0  0
    8.4053    1.9117   -0.0665 C   0  0  0  0  0  0
    8.9705    2.3158    1.1285 C   0  0  0  0  0  0
   10.0847    3.1412    1.1266 C   0  0  0  0  0  0
   10.6334    3.5619   -0.0790 C   0  0  0  0  0  0
   10.0624    3.1530   -1.2783 C   0  0  0  0  0  0
    8.9514    2.3233   -1.2678 C   0  0  0  0  0  0
   10.5954    3.5623   -2.4607 O   0  0  0  0  0  0
    9.9568    3.1032   -3.6537 C   0  0  0  0  0  0
   11.7266    4.3724   -0.0851 O   0  0  0  0  0  0
   13.0060    3.7360   -0.0999 C   0  0  0  0  0  0
   10.6395    3.5389    2.3028 O   0  0  0  0  0  0
   10.0227    3.0685    3.5029 C   0  0  0  0  0  0
   -1.2032   -0.6817    0.0104 N   0  0  0  0  0  0
    0.2286    3.8746    0.0199 H   0  0  0  0  0  0
    1.9082    3.9096    0.0044 H   0  0  0  0  0  0
    3.6224    3.0706   -0.0159 H   0  0  0  0  0  0
    5.5204   -0.7657   -0.0535 H   0  0  0  0  0  0
    6.0478    2.8021   -0.0399 H   0  0  0  0  0  0
    7.2162    0.3813    0.8269 H   0  0  0  0  0  0
    7.1995    0.3903   -0.9529 H   0  0  0  0  0  0
    8.5435    1.9884    2.0649 H   0  0  0  0  0  0
    8.5098    2.0015   -2.1993 H   0  0  0  0  0  0
   10.4804    3.5018   -4.5226 H   0  0  0  0  0  0
    9.9814    2.0138   -3.6828 H   0  0  0  0  0  0
    8.9214    3.4437   -3.6657 H   0  0  0  0  0  0
   13.7890    4.4943   -0.1034 H   0  0  0  0  0  0
   13.1106    3.1099    0.7862 H   0  0  0  0  0  0
   13.0943    3.1183   -0.9936 H   0  0  0  0  0  0
    8.9878    3.4091    3.5372 H   0  0  0  0  0  0
   10.0473    1.9789    3.5211 H   0  0  0  0  0  0
   10.5624    3.4585    4.3659 H   0  0  0  0  0  0
   -2.0376   -0.1872    0.0213 H   0  0  0  0  0  0
   -1.2143   -1.6516    0.0053 H   0  0  0  0  0  0
  1  2  1  0  0  0
  1  6  2  0  0  0
  2  3  2  0  0  0
  2 26  1  0  0  0
  3  4  1  0  0  0
  4  5  2  0  0  0
  4 11  1  0  0  0
  5  6  1  0  0  0
  5  8  1  0  0  0
  6  7  1  0  0  0
  7 27  1  0  0  0
  7 28  1  0  0  0
  8  9  2  0  0  0
  8 29  1  0  0  0
  9 10  1  0  0  0
  9 12  1  0  0  0
 10 11  2  0  0  0
 10 30  1  0  0  0
 12 13  1  0  0  0
 12 31  1  0  0  0
 13 14  1  0  0  0
 13 32  1  0  0  0
 13 33  1  0  0  0
 14 15  1  0  0  0
 14 19  2  0  0  0
 15 16  2  0  0  0
 15 34  1  0  0  0
 16 17  1  0  0  0
 16 24  1  0  0  0
 17 18  2  0  0  0
 17 22  1  0  0  0
 18 19  1  0  0  0
 18 20  1  0  0  0
 19 35  1  0  0  0
 20 21  1  0  0  0
 21 36  1  0  0  0
 21 37  1  0  0  0
 21 38  1  0  0  0
 22 23  1  0  0  0
 23 39  1  0  0  0
 23 40  1  0  0  0
 23 41  1  0  0  0
 24 25  1  0  0  0
 25 42  1  0  0  0
 25 43  1  0  0  0
 25 44  1  0  0  0
 26 45  1  0  0  0
 26 46  1  0  0  0
M  END
>  <Activity>
5.48149

>  <set_rl>
1

>  <Min_dist>
999.9

>  <Avg_dist>
999.9

>  <PC_uM>
14.1

>  <TG_uM>
0.35

>  <RL_uM>
3.3

$$$$
27-11
 Wcorina  11170919323D 1   1.00000     0.00000              
CORINA evaluation license 3.46 0067  05.08.2008
 37 39  0  0  0  0  0  0  0  0999 V2000
    0.1451    1.3345   -0.2391 N   0  0  0  0  0  0
    0.1606    0.0048   -0.2565 C   0  0  0  0  0  0
    1.2034   -0.7042    0.1331 N   0  0  0  0  0  0
    2.3148   -0.0963    0.5720 C   0  0  0  0  0  0
    2.3420    1.3195    0.6069 C   0  0  0  0  0  0
    1.1939    2.0298    0.1772 C   0  0  0  0  0  0
    1.1685    3.4071    0.1912 N   0  0  0  0  0  0
    3.4938    1.9718    1.0626 C   0  0  0  0  0  0
    4.5556    1.2020    1.4590 C   0  0  0  0  0  0
    4.4660   -0.1836    1.4005 C   0  0  0  0  0  0
    3.3816   -0.7895    0.9716 N   0  0  0  0  0  0
    5.8183    1.8566    1.9570 C   0  0  0  0  0  0
    5.6398    2.2632    3.3531 N   0  0  0  0  0  0
    6.6823    2.8960    4.0353 C   0  0  0  0  0  0
    6.5144    3.2820    5.3590 C   0  0  0  0  0  0
    7.5465    3.9072    6.0308 C   0  0  0  0  0  0
    8.7470    4.1491    5.3865 C   0  0  0  0  0  0
    8.9169    3.7660    4.0677 C   0  0  0  0  0  0
    7.8904    3.1349    3.3929 C   0  0  0  0  0  0
   10.0421    4.9352    6.2341 Cl  0  0  0  0  0  0
    3.5638    3.4762    1.1150 C   0  0  0  0  0  0
   -0.9640   -0.6635   -0.7014 N   0  0  0  0  0  0
    1.5508    3.8917    0.9394 H   0  0  0  0  0  0
    0.7683    3.8924   -0.5473 H   0  0  0  0  0  0
    5.3105   -0.7785    1.7157 H   0  0  0  0  0  0
    6.6456    1.1503    1.8873 H   0  0  0  0  0  0
    6.0373    2.7338    1.3482 H   0  0  0  0  0  0
    4.7978    2.0933    3.8038 H   0  0  0  0  0  0
    5.5775    3.0938    5.8622 H   0  0  0  0  0  0
    7.4163    4.2080    7.0599 H   0  0  0  0  0  0
    9.8547    3.9566    3.5671 H   0  0  0  0  0  0
    8.0253    2.8314    2.3652 H   0  0  0  0  0  0
    3.0931    3.8301    2.0322 H   0  0  0  0  0  0
    4.6068    3.7923    1.0967 H   0  0  0  0  0  0
    3.0422    3.8945    0.2542 H   0  0  0  0  0  0
   -1.7422   -0.1630   -0.9924 H   0  0  0  0  0  0
   -0.9752   -1.6332   -0.7228 H   0  0  0  0  0  0
  1  2  1  0  0  0
  1  6  2  0  0  0
  2  3  2  0  0  0
  2 22  1  0  0  0
  3  4  1  0  0  0
  4  5  2  0  0  0
  4 11  1  0  0  0
  5  6  1  0  0  0
  5  8  1  0  0  0
  6  7  1  0  0  0
  7 23  1  0  0  0
  7 24  1  0  0  0
  8  9  2  0  0  0
  8 21  1  0  0  0
  9 10  1  0  0  0
  9 12  1  0  0  0
 10 11  2  0  0  0
 10 25  1  0  0  0
 12 13  1  0  0  0
 12 26  1  0  0  0
 12 27  1  0  0  0
 13 14  1  0  0  0
 13 28  1  0  0  0
 14 15  1  0  0  0
 14 19  2  0  0  0
 15 16  2  0  0  0
 15 29  1  0  0  0
 16 17  1  0  0  0
 16 30  1  0  0  0
 17 18  2  0  0  0
 17 20  1  0  0  0
 18 19  1  0  0  0
 18 31  1  0  0  0
 19 32  1  0  0  0
 21 33  1  0  0  0
 21 34  1  0  0  0
 21 35  1  0  0  0
 22 36  1  0  0  0
 22 37  1  0  0  0
M  END
>  <Activity>
7.29243

>  <set_rl>
1

>  <Min_dist>
999.9

>  <Avg_dist>
999.9

>  <PC_uM>
0.0554

>  <TG_uM>
0.019

>  <RL_uM>
0.051

$$$$
28-10
 Wcorina  11170919323D 1   1.00000     0.00000              
CORINA evaluation license 3.46 0067  05.08.2008
 43 45  0  0  0  0  0  0  0  0999 V2000
   -0.0160    1.3257    0.0093 N   0  0  0  0  0  0
    0.0021   -0.0041    0.0020 C   0  0  0  0  0  0
    1.1203   -0.7049   -0.0120 N   0  0  0  0  0  0
    2.3106   -0.0881   -0.0200 C   0  0  0  0  0  0
    2.3382    1.3281   -0.0131 C   0  0  0  0  0  0
    1.1072    2.0294    0.0024 C   0  0  0  0  0  0
    1.0784    3.4067    0.0096 N   0  0  0  0  0  0
    3.5719    1.9896   -0.0209 C   0  0  0  0  0  0
    4.7108    1.2282   -0.0349 C   0  0  0  0  0  0
    4.6164   -0.1584   -0.0411 C   0  0  0  0  0  0
    3.4548   -0.7729   -0.0338 N   0  0  0  0  0  0
    6.0633    1.8928   -0.0442 C   0  0  0  0  0  0
    6.5342    2.1110    1.3951 C   0  0  0  0  0  0
    7.8867    2.7756    1.3858 C   0  0  0  0  0  0
    7.9773    4.1552    1.3915 C   0  0  0  0  0  0
    9.2156    4.7697    1.3831 C   0  0  0  0  0  0
   10.3695    4.0027    1.3688 C   0  0  0  0  0  0
   10.2783    2.6142    1.3631 C   0  0  0  0  0  0
    9.0340    2.0046    1.3773 C   0  0  0  0  0  0
   11.4080    1.8571    1.3486 O   0  0  0  0  0  0
   11.2380    0.4382    1.3435 C   0  0  0  0  0  0
   11.5885    4.6056    1.3601 O   0  0  0  0  0  0
   11.6055    6.0345    1.3662 C   0  0  0  0  0  0
   -1.2023   -0.6814    0.0099 N   0  0  0  0  0  0
    0.2285    3.8740    0.0199 H   0  0  0  0  0  0
    1.9081    3.9092    0.0044 H   0  0  0  0  0  0
    3.6243    3.0683   -0.0162 H   0  0  0  0  0  0
    5.5220   -0.7467   -0.0526 H   0  0  0  0  0  0
    6.7771    1.2568   -0.5676 H   0  0  0  0  0  0
    5.9921    2.8543   -0.5528 H   0  0  0  0  0  0
    5.8204    2.7470    1.9185 H   0  0  0  0  0  0
    6.6053    1.1495    1.9037 H   0  0  0  0  0  0
    7.0786    4.7541    1.4023 H   0  0  0  0  0  0
    9.2836    5.8475    1.3872 H   0  0  0  0  0  0
    8.9606    0.9271    1.3777 H   0  0  0  0  0  0
   10.6761    0.1428    0.4575 H   0  0  0  0  0  0
   12.2151   -0.0447    1.3318 H   0  0  0  0  0  0
   10.6932    0.1343    2.2373 H   0  0  0  0  0  0
   11.0877    6.4079    0.4827 H   0  0  0  0  0  0
   11.1045    6.4000    2.2626 H   0  0  0  0  0  0
   12.6374    6.3856    1.3581 H   0  0  0  0  0  0
   -2.0368   -0.1869    0.0205 H   0  0  0  0  0  0
   -1.2133   -1.6513    0.0048 H   0  0  0  0  0  0
  1  2  1  0  0  0
  1  6  2  0  0  0
  2  3  2  0  0  0
  2 24  1  0  0  0
  3  4  1  0  0  0
  4  5  2  0  0  0
  4 11  1  0  0  0
  5  6  1  0  0  0
  5  8  1  0  0  0
  6  7  1  0  0  0
  7 25  1  0  0  0
  7 26  1  0  0  0
  8  9  2  0  0  0
  8 27  1  0  0  0
  9 10  1  0  0  0
  9 12  1  0  0  0
 10 11  2  0  0  0
 10 28  1  0  0  0
 12 13  1  0  0  0
 12 29  1  0  0  0
 12 30  1  0  0  0
 13 14  1  0  0  0
 13 31  1  0  0  0
 13 32  1  0  0  0
 14 15  1  0  0  0
 14 19  2  0  0  0
 15 16  2  0  0  0
 15 33  1  0  0  0
 16 17  1  0  0  0
 16 34  1  0  0  0
 17 18  2  0  0  0
 17 22  1  0  0  0
 18 19  1  0  0  0
 18 20  1  0  0  0
 19 35  1  0  0  0
 20 21  1  0  0  0
 21 36  1  0  0  0
 21 37  1  0  0  0
 21 38  1  0  0  0
 22 23  1  0  0  0
 23 39  1  0  0  0
 23 40  1  0  0  0
 23 41  1  0  0  0
 24 42  1  0  0  0
 24 43  1  0  0  0
M  END
>  <Activity>
6.21467

>  <set_rl>
1

>  <Min_dist>
999.9

>  <Avg_dist>
999.9

>  <PC_uM>
1.4

>  <TG_uM>
0.2

>  <RL_uM>
0.61

$$$$
8-6
 Wcorina  11170919323D 1   1.00000     0.00000              
CORINA evaluation license 3.46 0067  05.08.2008
 33 35  0  0  0  0  0  0  0  0999 V2000
   -0.0160    1.3257    0.0093 N   0  0  0  0  0  0
    0.0021   -0.0041    0.0020 C   0  0  0  0  0  0
    1.1203   -0.7049   -0.0120 N   0  0  0  0  0  0
    2.3106   -0.0881   -0.0200 C   0  0  0  0  0  0
    2.3382    1.3281   -0.0131 C   0  0  0  0  0  0
    1.1072    2.0294    0.0024 C   0  0  0  0  0  0
    1.0784    3.4067    0.0096 N   0  0  0  0  0  0
    3.5719    1.9896   -0.0209 C   0  0  0  0  0  0
    4.7108    1.2282   -0.0349 C   0  0  0  0  0  0
    4.6164   -0.1584   -0.0411 C   0  0  0  0  0  0
    3.4548   -0.7729   -0.0338 N   0  0  0  0  0  0
    6.0633    1.8928   -0.0442 C   0  0  0  0  0  0
    6.6216    2.1514    1.6623 S   0  0  0  0  0  0
    8.1911    2.9246    1.4529 C   0  0  0  0  0  0
    8.6786    3.1760    0.1765 C   0  0  0  0  0  0
    9.9098    3.7830    0.0161 C   0  0  0  0  0  0
   10.6570    4.1399    1.1253 C   0  0  0  0  0  0
   10.1747    3.8912    2.3971 C   0  0  0  0  0  0
    8.9419    3.2897    2.5649 C   0  0  0  0  0  0
    8.3341    2.9845    4.1621 Cl  0  0  0  0  0  0
   10.5202    4.0977   -1.5783 Cl  0  0  0  0  0  0
   -1.2023   -0.6814    0.0099 N   0  0  0  0  0  0
    0.2285    3.8740    0.0199 H   0  0  0  0  0  0
    1.9081    3.9092    0.0044 H   0  0  0  0  0  0
    3.6243    3.0683   -0.0162 H   0  0  0  0  0  0
    5.5220   -0.7467   -0.0526 H   0  0  0  0  0  0
    6.7771    1.2568   -0.5676 H   0  0  0  0  0  0
    5.9921    2.8543   -0.5528 H   0  0  0  0  0  0
    8.0964    2.8971   -0.6893 H   0  0  0  0  0  0
   11.6192    4.6135    0.9971 H   0  0  0  0  0  0
   10.7603    4.1710    3.2603 H   0  0  0  0  0  0
   -2.0368   -0.1869    0.0205 H   0  0  0  0  0  0
   -1.2133   -1.6513    0.0048 H   0  0  0  0  0  0
  1  2  1  0  0  0
  1  6  2  0  0  0
  2  3  2  0  0  0
  2 22  1  0  0  0
  3  4  1  0  0  0
  4  5  2  0  0  0
  4 11  1  0  0  0
  5  6  1  0  0  0
  5  8  1  0  0  0
  6  7  1  0  0  0
  7 23  1  0  0  0
  7 24  1  0  0  0
  8  9  2  0  0  0
  8 25  1  0  0  0
  9 10  1  0  0  0
  9 12  1  0  0  0
 10 11  2  0  0  0
 10 26  1  0  0  0
 12 13  1  0  0  0
 12 27  1  0  0  0
 12 28  1  0  0  0
 13 14  1  0  0  0
 14 15  1  0  0  0
 14 19  2  0  0  0
 15 16  2  0  0  0
 15 29  1  0  0  0
 16 17  1  0  0  0
 16 21  1  0  0  0
 17 18  2  0  0  0
 17 30  1  0  0  0
 18 19  1  0  0  0
 18 31  1  0  0  0
 19 20  1  0  0  0
 22 32  1  0  0  0
 22 33  1  0  0  0
M  END
>  <Activity>
5.60206

>  <set_rl>
1

>  <Min_dist>
999.9

>  <Avg_dist>
999.9

>  <PC_uM>
5.9

>  <TG_uM>
2

>  <RL_uM>
2.5

$$$$
25-13
 Wcorina  11170919323D 1   1.00000     0.00000              
CORINA evaluation license 3.46 0067  05.08.2008
 49 51  0  0  0  0  0  0  0  0999 V2000
   -0.0160    1.3259    0.0093 N   0  0  0  0  0  0
    0.0021   -0.0041    0.0020 C   0  0  0  0  0  0
    1.1196   -0.7048   -0.0124 N   0  0  0  0  0  0
    2.3114   -0.0881   -0.0205 C   0  0  0  0  0  0
    2.3382    1.3279   -0.0131 C   0  0  0  0  0  0
    1.1072    2.0292    0.0024 C   0  0  0  0  0  0
    1.0785    3.4072    0.0096 N   0  0  0  0  0  0
    3.5707    1.9919   -0.0208 C   0  0  0  0  0  0
    4.7220    1.2213   -0.0355 C   0  0  0  0  0  0
    4.6188   -0.1712   -0.0421 C   0  0  0  0  0  0
    3.4531   -0.7762   -0.0346 N   0  0  0  0  0  0
    5.9799    1.8345   -0.0442 N   0  0  0  0  0  0
    7.1941    1.0150   -0.0597 C   0  0  0  0  0  0
    8.3252    1.8044   -0.6668 C   0  0  0  0  0  0
    9.2173    1.1846   -1.5217 C   0  0  0  0  0  0
   10.2596    1.9073   -2.0820 C   0  0  0  0  0  0
   10.4065    3.2567   -1.7834 C   0  0  0  0  0  0
    9.5072    3.8762   -0.9238 C   0  0  0  0  0  0
    8.4645    3.1476   -0.3717 C   0  0  0  0  0  0
    9.6469    5.1963   -0.6281 O   0  0  0  0  0  0
    8.6861    5.7668    0.2626 C   0  0  0  0  0  0
   11.4285    3.9694   -2.3309 O   0  0  0  0  0  0
   11.1753    4.6091   -3.5834 C   0  0  0  0  0  0
   11.1373    1.2964   -2.9223 O   0  0  0  0  0  0
   10.9256   -0.0924   -3.1838 C   0  0  0  0  0  0
    7.5600    0.6182    1.3720 C   0  0  0  0  0  0
   -1.2032   -0.6817    0.0104 N   0  0  0  0  0  0
    0.2286    3.8746    0.0199 H   0  0  0  0  0  0
    1.9082    3.9096    0.0044 H   0  0  0  0  0  0
    3.6224    3.0706   -0.0159 H   0  0  0  0  0  0
    5.5204   -0.7657   -0.0535 H   0  0  0  0  0  0
    6.0478    2.8021   -0.0399 H   0  0  0  0  0  0
    7.0188    0.1170   -0.6521 H   0  0  0  0  0  0
    9.1024    0.1360   -1.7532 H   0  0  0  0  0  0
    7.7626    3.6293    0.2930 H   0  0  0  0  0  0
    7.6889    5.6666   -0.1659 H   0  0  0  0  0  0
    8.7242    5.2467    1.2198 H   0  0  0  0  0  0
    8.9124    6.8223    0.4135 H   0  0  0  0  0  0
   10.9100    3.8583   -4.3278 H   0  0  0  0  0  0
   10.3529    5.3156   -3.4708 H   0  0  0  0  0  0
   12.0698    5.1413   -3.9070 H   0  0  0  0  0  0
    9.9431   -0.2315   -3.6348 H   0  0  0  0  0  0
   11.6937   -0.4547   -3.8671 H   0  0  0  0  0  0
   10.9785   -0.6503   -2.2489 H   0  0  0  0  0  0
    6.7419    0.0472    1.8111 H   0  0  0  0  0  0
    8.4634    0.0085    1.3604 H   0  0  0  0  0  0
    7.7352    1.5162    1.9643 H   0  0  0  0  0  0
   -2.0376   -0.1872    0.0213 H   0  0  0  0  0  0
   -1.2143   -1.6516    0.0053 H   0  0  0  0  0  0
  1  2  1  0  0  0
  1  6  2  0  0  0
  2  3  2  0  0  0
  2 27  1  0  0  0
  3  4  1  0  0  0
  4  5  2  0  0  0
  4 11  1  0  0  0
  5  6  1  0  0  0
  5  8  1  0  0  0
  6  7  1  0  0  0
  7 28  1  0  0  0
  7 29  1  0  0  0
  8  9  2  0  0  0
  8 30  1  0  0  0
  9 10  1  0  0  0
  9 12  1  0  0  0
 10 11  2  0  0  0
 10 31  1  0  0  0
 12 13  1  0  0  0
 12 32  1  0  0  0
 13 14  1  0  0  0
 13 26  1  0  0  0
 13 33  1  0  0  0
 14 15  1  0  0  0
 14 19  2  0  0  0
 15 16  2  0  0  0
 15 34  1  0  0  0
 16 17  1  0  0  0
 16 24  1  0  0  0
 17 18  2  0  0  0
 17 22  1  0  0  0
 18 19  1  0  0  0
 18 20  1  0  0  0
 19 35  1  0  0  0
 20 21  1  0  0  0
 21 36  1  0  0  0
 21 37  1  0  0  0
 21 38  1  0  0  0
 22 23  1  0  0  0
 23 39  1  0  0  0
 23 40  1  0  0  0
 23 41  1  0  0  0
 24 25  1  0  0  0
 25 42  1  0  0  0
 25 43  1  0  0  0
 25 44  1  0  0  0
 26 45  1  0  0  0
 26 46  1  0  0  0
 26 47  1  0  0  0
 27 48  1  0  0  0
 27 49  1  0  0  0
M  END
>  <Activity>
5.8962

>  <set_rl>
1

>  <Min_dist>
999.9

>  <Avg_dist>
999.9

>  <PC_uM>
9.2

>  <TG_uM>
0.194

>  <RL_uM>
1.27

$$$$
25-22
 Wcorina  11170919323D 1   1.00000     0.00000              
CORINA evaluation license 3.46 0067  05.08.2008
 45 47  0  0  0  0  0  0  0  0999 V2000
   -0.0160    1.3259    0.0093 N   0  0  0  0  0  0
    0.0021   -0.0041    0.0020 C   0  0  0  0  0  0
    1.1196   -0.7048   -0.0124 N   0  0  0  0  0  0
    2.3114   -0.0881   -0.0205 C   0  0  0  0  0  0
    2.3382    1.3279   -0.0131 C   0  0  0  0  0  0
    1.1072    2.0292    0.0024 C   0  0  0  0  0  0
    1.0785    3.4072    0.0096 N   0  0  0  0  0  0
    3.5707    1.9919   -0.0208 C   0  0  0  0  0  0
    4.7220    1.2213   -0.0355 C   0  0  0  0  0  0
    4.6188   -0.1712   -0.0421 C   0  0  0  0  0  0
    3.4531   -0.7762   -0.0346 N   0  0  0  0  0  0
    5.9799    1.8345   -0.0442 N   0  0  0  0  0  0
    7.1941    1.0150   -0.0597 C   0  0  0  0  0  0
    7.5972    0.7412   -1.4858 C   0  0  0  0  0  0
    7.2858   -0.4709   -2.0710 C   0  0  0  0  0  0
    7.6563   -0.7227   -3.3834 C   0  0  0  0  0  0
    8.3395    0.2425   -4.1086 C   0  0  0  0  0  0
    8.6508    1.4542   -3.5235 C   0  0  0  0  0  0
    8.2756    1.7081   -2.2124 C   0  0  0  0  0  0
    8.5771    2.9032   -1.6381 O   0  0  0  0  0  0
    9.2772    3.8524   -2.4450 C   0  0  0  0  0  0
    7.3502   -1.9159   -3.9594 O   0  0  0  0  0  0
    7.7624   -2.1070   -5.3142 C   0  0  0  0  0  0
    6.0825    3.2959   -0.0377 C   0  0  0  0  0  0
   -1.2032   -0.6817    0.0104 N   0  0  0  0  0  0
    0.2286    3.8746    0.0199 H   0  0  0  0  0  0
    1.9082    3.9096    0.0044 H   0  0  0  0  0  0
    3.6224    3.0706   -0.0159 H   0  0  0  0  0  0
    5.5204   -0.7657   -0.0535 H   0  0  0  0  0  0
    7.9979    1.5468    0.4493 H   0  0  0  0  0  0
    7.0022    0.0714    0.4512 H   0  0  0  0  0  0
    6.7542   -1.2225   -1.5063 H   0  0  0  0  0  0
    8.6284    0.0463   -5.1306 H   0  0  0  0  0  0
    9.1831    2.2055   -4.0880 H   0  0  0  0  0  0
   10.2315    3.4291   -2.7585 H   0  0  0  0  0  0
    8.6797    4.0925   -3.3244 H   0  0  0  0  0  0
    9.4544    4.7597   -1.8674 H   0  0  0  0  0  0
    8.8469   -2.0198   -5.3798 H   0  0  0  0  0  0
    7.4566   -3.0976   -5.6507 H   0  0  0  0  0  0
    7.2982   -1.3494   -5.9456 H   0  0  0  0  0  0
    6.1176    3.6531    0.9915 H   0  0  0  0  0  0
    6.9909    3.5986   -0.5586 H   0  0  0  0  0  0
    5.2154    3.7232   -0.5413 H   0  0  0  0  0  0
   -2.0376   -0.1872    0.0213 H   0  0  0  0  0  0
   -1.2143   -1.6516    0.0053 H   0  0  0  0  0  0
  1  2  1  0  0  0
  1  6  2  0  0  0
  2  3  2  0  0  0
  2 25  1  0  0  0
  3  4  1  0  0  0
  4  5  2  0  0  0
  4 11  1  0  0  0
  5  6  1  0  0  0
  5  8  1  0  0  0
  6  7  1  0  0  0
  7 26  1  0  0  0
  7 27  1  0  0  0
  8  9  2  0  0  0
  8 28  1  0  0  0
  9 10  1  0  0  0
  9 12  1  0  0  0
 10 11  2  0  0  0
 10 29  1  0  0  0
 12 13  1  0  0  0
 12 24  1  0  0  0
 13 14  1  0  0  0
 13 30  1  0  0  0
 13 31  1  0  0  0
 14 15  1  0  0  0
 14 19  2  0  0  0
 15 16  2  0  0  0
 15 32  1  0  0  0
 16 17  1  0  0  0
 16 22  1  0  0  0
 17 18  2  0  0  0
 17 33  1  0  0  0
 18 19  1  0  0  0
 18 34  1  0  0  0
 19 20  1  0  0  0
 20 21  1  0  0  0
 21 35  1  0  0  0
 21 36  1  0  0  0
 21 37  1  0  0  0
 22 23  1  0  0  0
 23 38  1  0  0  0
 23 39  1  0  0  0
 23 40  1  0  0  0
 24 41  1  0  0  0
 24 42  1  0  0  0
 24 43  1  0  0  0
 25 44  1  0  0  0
 25 45  1  0  0  0
M  END
>  <Activity>
7.24413

>  <set_rl>
1

>  <Min_dist>
999.9

>  <Avg_dist>
999.9

>  <PC_uM>
0.084

>  <TG_uM>
0.0063

>  <RL_uM>
0.057

$$$$
26-8
 Wcorina  11170919323D 1   1.00000     0.00000              
CORINA evaluation license 3.46 0067  05.08.2008
 53 56  0  0  0  0  0  0  0  0999 V2000
    0.1449    1.3345   -0.2391 N   0  0  0  0  0  0
    0.1605    0.0048   -0.2566 C   0  0  0  0  0  0
    1.2033   -0.7042    0.1331 N   0  0  0  0  0  0
    2.3146   -0.0963    0.5719 C   0  0  0  0  0  0
    2.3419    1.3195    0.6068 C   0  0  0  0  0  0
    1.1938    2.0298    0.1771 C   0  0  0  0  0  0
    1.1684    3.4071    0.1911 N   0  0  0  0  0  0
    3.4936    1.9718    1.0624 C   0  0  0  0  0  0
    4.5555    1.2020    1.4589 C   0  0  0  0  0  0
    4.4659   -0.1836    1.4004 C   0  0  0  0  0  0
    3.3814   -0.7895    0.9715 N   0  0  0  0  0  0
    5.8182    1.8566    1.9568 C   0  0  0  0  0  0
    5.6397    2.2633    3.3529 N   0  0  0  0  0  0
    6.6847    2.8975    4.0368 C   0  0  0  0  0  0
    7.8891    3.1408    3.3926 C   0  0  0  0  0  0
    8.9220    3.7686    4.0695 C   0  0  0  0  0  0
    8.7525    4.1554    5.3953 C   0  0  0  0  0  0
    7.5512    3.9129    6.0403 C   0  0  0  0  0  0
    6.5134    3.2896    5.3628 C   0  0  0  0  0  0
    5.2926    3.0488    6.0150 N   0  0  0  0  0  0
    5.1463    2.4593    7.2373 C   0  0  0  0  0  0
    3.8291    2.4039    7.5236 C   0  0  0  0  0  0
    3.1366    2.9796    6.4400 C   0  0  0  0  0  0
    4.0565    3.3708    5.5340 C   0  0  0  0  0  0
    9.7681    4.7719    6.0589 O   0  0  0  0  0  0
    9.5251    5.1417    7.4177 C   0  0  0  0  0  0
   10.1030    4.0067    3.4377 O   0  0  0  0  0  0
   10.2079    3.5827    2.0771 C   0  0  0  0  0  0
    3.5637    3.4763    1.1149 C   0  0  0  0  0  0
   -0.9641   -0.6635   -0.7015 N   0  0  0  0  0  0
    1.5507    3.8917    0.9393 H   0  0  0  0  0  0
    0.7681    3.8923   -0.5474 H   0  0  0  0  0  0
    5.3104   -0.7785    1.7155 H   0  0  0  0  0  0
    6.6455    1.1503    1.8871 H   0  0  0  0  0  0
    6.0372    2.7339    1.3481 H   0  0  0  0  0  0
    4.7977    2.0933    3.8037 H   0  0  0  0  0  0
    8.0215    2.8406    2.3636 H   0  0  0  0  0  0
    7.4207    4.2132    7.0695 H   0  0  0  0  0  0
    5.9467    2.0990    7.8665 H   0  0  0  0  0  0
    3.3865    1.9933    8.4191 H   0  0  0  0  0  0
    2.0660    3.0911    6.3526 H   0  0  0  0  0  0
    3.8503    3.8529    4.5898 H   0  0  0  0  0  0
    8.6842    5.8338    7.4611 H   0  0  0  0  0  0
    9.2927    4.2505    8.0008 H   0  0  0  0  0  0
   10.4132    5.6227    7.8277 H   0  0  0  0  0  0
   11.1974    3.8321    1.6940 H   0  0  0  0  0  0
   10.0572    2.5047    2.0198 H   0  0  0  0  0  0
    9.4490    4.0879    1.4796 H   0  0  0  0  0  0
    3.0929    3.8301    2.0321 H   0  0  0  0  0  0
    4.6067    3.7923    1.0965 H   0  0  0  0  0  0
    3.0421    3.8945    0.2540 H   0  0  0  0  0  0
   -1.7424   -0.1630   -0.9924 H   0  0  0  0  0  0
   -0.9753   -1.6332   -0.7229 H   0  0  0  0  0  0
  1  2  1  0  0  0
  1  6  2  0  0  0
  2  3  2  0  0  0
  2 30  1  0  0  0
  3  4  1  0  0  0
  4  5  2  0  0  0
  4 11  1  0  0  0
  5  6  1  0  0  0
  5  8  1  0  0  0
  6  7  1  0  0  0
  7 31  1  0  0  0
  7 32  1  0  0  0
  8  9  2  0  0  0
  8 29  1  0  0  0
  9 10  1  0  0  0
  9 12  1  0  0  0
 10 11  2  0  0  0
 10 33  1  0  0  0
 12 13  1  0  0  0
 12 34  1  0  0  0
 12 35  1  0  0  0
 13 14  1  0  0  0
 13 36  1  0  0  0
 14 15  1  0  0  0
 14 19  2  0  0  0
 15 16  2  0  0  0
 15 37  1  0  0  0
 16 17  1  0  0  0
 16 27  1  0  0  0
 17 18  2  0  0  0
 17 25  1  0  0  0
 18 19  1  0  0  0
 18 38  1  0  0  0
 19 20  1  0  0  0
 20 21  1  0  0  0
 20 24  1  0  0  0
 21 22  2  0  0  0
 21 39  1  0  0  0
 22 23  1  0  0  0
 22 40  1  0  0  0
 23 24  2  0  0  0
 23 41  1  0  0  0
 24 42  1  0  0  0
 25 26  1  0  0  0
 26 43  1  0  0  0
 26 44  1  0  0  0
 26 45  1  0  0  0
 27 28  1  0  0  0
 28 46  1  0  0  0
 28 47  1  0  0  0
 28 48  1  0  0  0
 29 49  1  0  0  0
 29 50  1  0  0  0
 29 51  1  0  0  0
 30 52  1  0  0  0
 30 53  1  0  0  0
M  END
>  <Activity>
5.45593

>  <set_rl>
1

>  <Min_dist>
999.9

>  <Avg_dist>
999.9

>  <PC_uM>
1.8

>  <TG_uM>
0.6

>  <RL_uM>
3.5

$$$$
28-5
 Wcorina  11170919323D 1   1.00000     0.00000              
CORINA evaluation license 3.46 0067  05.08.2008
 48 50  0  0  0  0  0  0  0  0999 V2000
   -0.1914    1.9948    1.1834 N   0  0  0  0  0  0
   -0.3109    0.6760    1.3054 C   0  0  0  0  0  0
    0.7102   -0.1504    1.1776 N   0  0  0  0  0  0
    1.9376    0.3195    0.9130 C   0  0  0  0  0  0
    2.1105    1.7186    0.7746 C   0  0  0  0  0  0
    0.9793    2.5588    0.9223 C   0  0  0  0  0  0
    1.0931    3.9260    0.7972 N   0  0  0  0  0  0
    3.3850    2.2277    0.4987 C   0  0  0  0  0  0
    4.4202    1.3389    0.3735 C   0  0  0  0  0  0
    4.1850   -0.0229    0.5207 C   0  0  0  0  0  0
    2.9858   -0.4939    0.7797 N   0  0  0  0  0  0
    5.8111    1.8370    0.0762 C   0  0  0  0  0  0
    6.5142    2.1017    1.3339 N   0  0  0  0  0  0
    7.2614    1.0868    1.9457 C   0  0  0  0  0  0
    8.4189    0.6168    1.3406 C   0  0  0  0  0  0
    9.1590   -0.3870    1.9453 C   0  0  0  0  0  0
    8.7419   -0.9229    3.1580 C   0  0  0  0  0  0
    7.5828   -0.4517    3.7631 C   0  0  0  0  0  0
    6.8469    0.5558    3.1594 C   0  0  0  0  0  0
    7.1737   -0.9753    4.9496 O   0  0  0  0  0  0
    5.9736   -0.4434    5.5141 C   0  0  0  0  0  0
    9.4681   -1.9093    3.7526 O   0  0  0  0  0  0
   10.4960   -1.5023    4.6580 C   0  0  0  0  0  0
   10.2927   -0.8477    1.3521 O   0  0  0  0  0  0
   10.6614   -0.2517    0.1068 C   0  0  0  0  0  0
    6.4422    3.3216    1.9025 C   0  0  0  0  0  0
    6.9477    3.5156    2.9878 O   0  0  0  0  0  0
   -1.5583    0.1478    1.5782 N   0  0  0  0  0  0
    0.3102    4.4893    0.9005 H   0  0  0  0  0  0
    1.9561    4.3253    0.6059 H   0  0  0  0  0  0
    3.5474    3.2896    0.3874 H   0  0  0  0  0  0
    5.0098   -0.7126    0.4191 H   0  0  0  0  0  0
    6.3541    1.0814   -0.4915 H   0  0  0  0  0  0
    5.7511    2.7561   -0.5068 H   0  0  0  0  0  0
    8.7426    1.0331    0.3981 H   0  0  0  0  0  0
    5.9486    0.9253    3.6317 H   0  0  0  0  0  0
    6.0984    0.6246    5.6928 H   0  0  0  0  0  0
    5.1457   -0.6018    4.8231 H   0  0  0  0  0  0
    5.7613   -0.9472    6.4571 H   0  0  0  0  0  0
   11.2208   -0.8827    4.1300 H   0  0  0  0  0  0
   10.0553   -0.9303    5.4745 H   0  0  0  0  0  0
   10.9958   -2.3835    5.0601 H   0  0  0  0  0  0
   10.8186    0.8176    0.2482 H   0  0  0  0  0  0
   11.5816   -0.7092   -0.2566 H   0  0  0  0  0  0
    9.8654   -0.4088   -0.6210 H   0  0  0  0  0  0
    5.9344    4.1263    1.3916 H   0  0  0  0  0  0
   -2.3232    0.7362    1.6765 H   0  0  0  0  0  0
   -1.6691   -0.8113    1.6714 H   0  0  0  0  0  0
  1  2  1  0  0  0
  1  6  2  0  0  0
  2  3  2  0  0  0
  2 28  1  0  0  0
  3  4  1  0  0  0
  4  5  2  0  0  0
  4 11  1  0  0  0
  5  6  1  0  0  0
  5  8  1  0  0  0
  6  7  1  0  0  0
  7 29  1  0  0  0
  7 30  1  0  0  0
  8  9  2  0  0  0
  8 31  1  0  0  0
  9 10  1  0  0  0
  9 12  1  0  0  0
 10 11  2  0  0  0
 10 32  1  0  0  0
 12 13  1  0  0  0
 12 33  1  0  0  0
 12 34  1  0  0  0
 13 14  1  0  0  0
 13 26  1  0  0  0
 14 15  1  0  0  0
 14 19  2  0  0  0
 15 16  2  0  0  0
 15 35  1  0  0  0
 16 17  1  0  0  0
 16 24  1  0  0  0
 17 18  2  0  0  0
 17 22  1  0  0  0
 18 19  1  0  0  0
 18 20  1  0  0  0
 19 36  1  0  0  0
 20 21  1  0  0  0
 21 37  1  0  0  0
 21 38  1  0  0  0
 21 39  1  0  0  0
 22 23  1  0  0  0
 23 40  1  0  0  0
 23 41  1  0  0  0
 23 42  1  0  0  0
 24 25  1  0  0  0
 25 43  1  0  0  0
 25 44  1  0  0  0
 25 45  1  0  0  0
 26 27  2  0  0  0
 26 46  1  0  0  0
 28 47  1  0  0  0
 28 48  1  0  0  0
M  END
>  <Activity>
5.13077

>  <set_rl>
1

>  <Min_dist>
999.9

>  <Avg_dist>
999.9

>  <PC_uM>
18.5

>  <TG_uM>
1.1

>  <RL_uM>
7.4

$$$$
28-8
 Wcorina  11170919323D 1   1.00000     0.00000              
CORINA evaluation license 3.46 0067  05.08.2008
 37 39  0  0  0  0  0  0  0  0999 V2000
    1.1017    3.2944   -1.0036 C   0  0  0  0  0  0
    2.2873    3.7209   -1.7441 C   0  0  0  0  0  0
    3.3133    2.8810   -1.7992 N   0  0  0  0  0  0
    3.2633    1.6947   -1.2019 C   0  0  0  0  0  0
    2.2193    1.2630   -0.5227 N   0  0  0  0  0  0
    1.1184    2.0153   -0.3915 C   0  0  0  0  0  0
    0.0560    1.5878    0.2935 N   0  0  0  0  0  0
   -1.0213    2.3243    0.4212 C   0  0  0  0  0  0
   -1.1122    3.6014   -0.1567 C   0  0  0  0  0  0
   -0.0332    4.0991   -0.8894 C   0  0  0  0  0  0
   -2.3363    4.4054    0.0043 C   0  0  0  0  0  0
   -2.2498    5.7370    0.1574 C   0  0  0  0  0  0
   -0.9366    6.3704    0.3700 C   0  0  0  0  0  0
   -0.6561    7.6129   -0.2056 C   0  0  0  0  0  0
    0.5734    8.2015   -0.0035 C   0  0  0  0  0  0
    1.5333    7.5620    0.7704 C   0  0  0  0  0  0
    1.2592    6.3273    1.3444 C   0  0  0  0  0  0
    0.0305    5.7334    1.1528 C   0  0  0  0  0  0
    2.7443    8.1458    0.9661 O   0  0  0  0  0  0
    3.6851    7.4339    1.7724 C   0  0  0  0  0  0
    4.3664    0.8681   -1.2987 N   0  0  0  0  0  0
    2.3378    4.9504   -2.3630 N   0  0  0  0  0  0
   -1.8590    1.9397    0.9839 H   0  0  0  0  0  0
   -0.0737    5.0754   -1.3493 H   0  0  0  0  0  0
   -3.3031    3.9241   -0.0007 H   0  0  0  0  0  0
   -3.1429    6.3434    0.1247 H   0  0  0  0  0  0
   -1.4015    8.1106   -0.8081 H   0  0  0  0  0  0
    0.7911    9.1615   -0.4479 H   0  0  0  0  0  0
    2.0087    5.8338    1.9454 H   0  0  0  0  0  0
   -0.1833    4.7754    1.6033 H   0  0  0  0  0  0
    4.6077    8.0094    1.8481 H   0  0  0  0  0  0
    3.2687    7.2822    2.7682 H   0  0  0  0  0  0
    3.8965    6.4669    1.3158 H   0  0  0  0  0  0
    5.1488    1.1593   -1.7925 H   0  0  0  0  0  0
    4.3582   -0.0034   -0.8728 H   0  0  0  0  0  0
    1.5776    5.5507   -2.3120 H   0  0  0  0  0  0
    3.1336    5.2160   -2.8500 H   0  0  0  0  0  0
  1  2  1  0  0  0
  1  6  2  0  0  0
  1 10  1  0  0  0
  2  3  2  0  0  0
  2 22  1  0  0  0
  3  4  1  0  0  0
  4  5  2  0  0  0
  4 21  1  0  0  0
  5  6  1  0  0  0
  6  7  1  0  0  0
  7  8  2  0  0  0
  8  9  1  0  0  0
  8 23  1  0  0  0
  9 10  2  0  0  0
  9 11  1  0  0  0
 10 24  1  0  0  0
 11 12  2  0  0  0
 11 25  1  0  0  0
 12 13  1  0  0  0
 12 26  1  0  0  0
 13 14  1  0  0  0
 13 18  2  0  0  0
 14 15  2  0  0  0
 14 27  1  0  0  0
 15 16  1  0  0  0
 15 28  1  0  0  0
 16 17  2  0  0  0
 16 19  1  0  0  0
 17 18  1  0  0  0
 17 29  1  0  0  0
 18 30  1  0  0  0
 19 20  1  0  0  0
 20 31  1  0  0  0
 20 32  1  0  0  0
 20 33  1  0  0  0
 21 34  1  0  0  0
 21 35  1  0  0  0
 22 36  1  0  0  0
 22 37  1  0  0  0
M  END
>  <Activity>
4.92812

>  <set_rl>
1

>  <Min_dist>
999.9

>  <Avg_dist>
999.9

>  <PC_uM>
5.3

>  <TG_uM>
1.5

>  <RL_uM>
11.8

$$$$
28-9
 Wcorina  11170919323D 1   1.00000     0.00000              
CORINA evaluation license 3.46 0067  05.08.2008
 47 49  0  0  0  0  0  0  0  0999 V2000
   -0.0160    1.3257    0.0093 N   0  0  0  0  0  0
    0.0021   -0.0041    0.0020 C   0  0  0  0  0  0
    1.1203   -0.7049   -0.0120 N   0  0  0  0  0  0
    2.3106   -0.0881   -0.0200 C   0  0  0  0  0  0
    2.3382    1.3281   -0.0131 C   0  0  0  0  0  0
    1.1072    2.0294    0.0024 C   0  0  0  0  0  0
    1.0784    3.4067    0.0096 N   0  0  0  0  0  0
    3.5719    1.9896   -0.0209 C   0  0  0  0  0  0
    4.7108    1.2282   -0.0349 C   0  0  0  0  0  0
    4.6164   -0.1584   -0.0411 C   0  0  0  0  0  0
    3.4548   -0.7729   -0.0338 N   0  0  0  0  0  0
    6.0633    1.8928   -0.0442 C   0  0  0  0  0  0
    6.5342    2.1110    1.3951 C   0  0  0  0  0  0
    7.8867    2.7756    1.3858 C   0  0  0  0  0  0
    7.9769    4.1550    1.3915 C   0  0  0  0  0  0
    9.2194    4.7705    1.3826 C   0  0  0  0  0  0
   10.3750    3.9986    1.3683 C   0  0  0  0  0  0
   10.2800    2.6120    1.3631 C   0  0  0  0  0  0
    9.0337    2.0043    1.3773 C   0  0  0  0  0  0
   11.4079    1.8523    1.3487 O   0  0  0  0  0  0
   11.2347    0.4338    1.3441 C   0  0  0  0  0  0
   11.5964    4.5988    1.3590 O   0  0  0  0  0  0
   12.1909    4.8797    2.6278 C   0  0  0  0  0  0
    9.3071    6.1276    1.3873 O   0  0  0  0  0  0
    8.0784    6.8570    1.4016 C   0  0  0  0  0  0
   -1.2023   -0.6814    0.0099 N   0  0  0  0  0  0
    0.2285    3.8740    0.0199 H   0  0  0  0  0  0
    1.9081    3.9092    0.0044 H   0  0  0  0  0  0
    3.6243    3.0683   -0.0162 H   0  0  0  0  0  0
    5.5220   -0.7467   -0.0526 H   0  0  0  0  0  0
    6.7771    1.2568   -0.5676 H   0  0  0  0  0  0
    5.9921    2.8543   -0.5528 H   0  0  0  0  0  0
    5.8204    2.7470    1.9185 H   0  0  0  0  0  0
    6.6053    1.1495    1.9037 H   0  0  0  0  0  0
    7.0783    4.7541    1.4026 H   0  0  0  0  0  0
    8.9591    0.9269    1.3777 H   0  0  0  0  0  0
   12.2107   -0.0514    1.3324 H   0  0  0  0  0  0
   10.6893    0.1315    2.2381 H   0  0  0  0  0  0
   10.6719    0.1394    0.4582 H   0  0  0  0  0  0
   13.1593    5.3569    2.4776 H   0  0  0  0  0  0
   11.5409    5.5470    3.1938 H   0  0  0  0  0  0
   12.3259    3.9495    3.1797 H   0  0  0  0  0  0
    8.2905    7.9262    1.4040 H   0  0  0  0  0  0
    7.4955    6.6043    0.5159 H   0  0  0  0  0  0
    7.5119    6.5970    2.2958 H   0  0  0  0  0  0
   -2.0368   -0.1869    0.0205 H   0  0  0  0  0  0
   -1.2133   -1.6513    0.0048 H   0  0  0  0  0  0
  1  2  1  0  0  0
  1  6  2  0  0  0
  2  3  2  0  0  0
  2 26  1  0  0  0
  3  4  1  0  0  0
  4  5  2  0  0  0
  4 11  1  0  0  0
  5  6  1  0  0  0
  5  8  1  0  0  0
  6  7  1  0  0  0
  7 27  1  0  0  0
  7 28  1  0  0  0
  8  9  2  0  0  0
  8 29  1  0  0  0
  9 10  1  0  0  0
  9 12  1  0  0  0
 10 11  2  0  0  0
 10 30  1  0  0  0
 12 13  1  0  0  0
 12 31  1  0  0  0
 12 32  1  0  0  0
 13 14  1  0  0  0
 13 33  1  0  0  0
 13 34  1  0  0  0
 14 15  1  0  0  0
 14 19  2  0  0  0
 15 16  2  0  0  0
 15 35  1  0  0  0
 16 17  1  0  0  0
 16 24  1  0  0  0
 17 18  2  0  0  0
 17 22  1  0  0  0
 18 19  1  0  0  0
 18 20  1  0  0  0
 19 36  1  0  0  0
 20 21  1  0  0  0
 21 37  1  0  0  0
 21 38  1  0  0  0
 21 39  1  0  0  0
 22 23  1  0  0  0
 23 40  1  0  0  0
 23 41  1  0  0  0
 23 42  1  0  0  0
 24 25  1  0  0  0
 25 43  1  0  0  0
 25 44  1  0  0  0
 25 45  1  0  0  0
 26 46  1  0  0  0
 26 47  1  0  0  0
M  END
>  <Activity>
5.9431

>  <set_rl>
1

>  <Min_dist>
999.9

>  <Avg_dist>
999.9

>  <PC_uM>
5

>  <TG_uM>
0.2

>  <RL_uM>
1.14

$$$$
30-3
 Wcorina  11170919323D 1   1.00000     0.00000              
CORINA evaluation license 3.46 0067  05.08.2008
 45 48  0  0  0  0  0  0  0  0999 V2000
   -1.0794   -1.2243    1.0434 C   0  0  0  0  0  0
   -0.2503   -0.6285    0.2067 N   0  0  0  0  0  0
    0.8072   -1.2866   -0.2884 C   0  0  0  0  0  0
    1.0119   -2.6317    0.1067 C   0  0  0  0  0  0
    0.0906   -3.2208    1.0070 C   0  0  0  0  0  0
   -0.9233   -2.4841    1.4391 N   0  0  0  0  0  0
    0.2439   -4.5254    1.4223 N   0  0  0  0  0  0
    2.1105   -3.3355   -0.4009 C   0  0  0  0  0  0
    2.9481   -2.6838   -1.2674 C   0  0  0  0  0  0
    2.6923   -1.3630   -1.6160 C   0  0  0  0  0  0
    1.6594   -0.7080   -1.1353 N   0  0  0  0  0  0
    4.1449   -3.3978   -1.8411 C   0  0  0  0  0  0
    5.1762   -3.5359   -0.8041 N   0  0  0  0  0  0
    5.8416   -2.3188   -0.5914 C   0  0  0  0  0  0
    7.0953   -2.3278   -1.1908 C   0  0  0  0  0  0
    7.9172   -1.2233   -1.1123 C   0  0  0  0  0  0
    7.4975   -0.0926   -0.4263 C   0  0  0  0  0  0
    6.2500   -0.0781    0.1793 C   0  0  0  0  0  0
    5.4267   -1.1821    0.0989 C   0  0  0  0  0  0
    8.3069    0.9975   -0.3477 O   0  0  0  0  0  0
    7.8083    2.1250    0.3749 C   0  0  0  0  0  0
    7.2902   -3.6800   -1.8474 C   0  0  0  0  0  0
    6.1872   -4.5431   -1.1929 C   0  0  0  0  0  0
    2.3645   -4.7673   -0.0056 C   0  0  0  0  0  0
   -2.1531   -0.5059    1.5336 N   0  0  0  0  0  0
    0.0817   -4.7615    2.3490 H   0  0  0  0  0  0
    0.5139   -5.2077    0.7880 H   0  0  0  0  0  0
    3.3609   -0.8611   -2.2998 H   0  0  0  0  0  0
    3.8456   -4.3862   -2.1898 H   0  0  0  0  0  0
    4.5445   -2.8233   -2.6768 H   0  0  0  0  0  0
    8.8882   -1.2385   -1.5848 H   0  0  0  0  0  0
    5.9223    0.8000    0.7159 H   0  0  0  0  0  0
    4.4562   -1.1647    0.5725 H   0  0  0  0  0  0
    8.5506    2.9230    0.3605 H   0  0  0  0  0  0
    6.8877    2.4768   -0.0908 H   0  0  0  0  0  0
    7.6062    1.8353    1.4060 H   0  0  0  0  0  0
    7.1380   -3.6114   -2.9246 H   0  0  0  0  0  0
    8.2785   -4.0802   -1.6210 H   0  0  0  0  0  0
    6.5725   -5.0627   -0.3156 H   0  0  0  0  0  0
    5.7723   -5.2502   -1.9111 H   0  0  0  0  0  0
    1.7536   -5.4279   -0.6208 H   0  0  0  0  0  0
    3.4181   -5.0038   -0.1540 H   0  0  0  0  0  0
    2.1054   -4.9059    1.0441 H   0  0  0  0  0  0
   -2.2846    0.4159    1.2618 H   0  0  0  0  0  0
   -2.7753   -0.9234    2.1497 H   0  0  0  0  0  0
  1  2  1  0  0  0
  1  6  2  0  0  0
  1 25  1  0  0  0
  2  3  2  0  0  0
  3  4  1  0  0  0
  3 11  1  0  0  0
  4  5  2  0  0  0
  4  8  1  0  0  0
  5  6  1  0  0  0
  5  7  1  0  0  0
  7 26  1  0  0  0
  7 27  1  0  0  0
  8  9  2  0  0  0
  8 24  1  0  0  0
  9 10  1  0  0  0
  9 12  1  0  0  0
 10 11  2  0  0  0
 10 28  1  0  0  0
 12 13  1  0  0  0
 12 29  1  0  0  0
 12 30  1  0  0  0
 13 14  1  0  0  0
 13 23  1  0  0  0
 14 15  1  0  0  0
 14 19  2  0  0  0
 15 16  2  0  0  0
 15 22  1  0  0  0
 16 17  1  0  0  0
 16 31  1  0  0  0
 17 18  2  0  0  0
 17 20  1  0  0  0
 18 19  1  0  0  0
 18 32  1  0  0  0
 19 33  1  0  0  0
 20 21  1  0  0  0
 21 34  1  0  0  0
 21 35  1  0  0  0
 21 36  1  0  0  0
 22 23  1  0  0  0
 22 37  1  0  0  0
 22 38  1  0  0  0
 23 39  1  0  0  0
 23 40  1  0  0  0
 24 41  1  0  0  0
 24 42  1  0  0  0
 24 43  1  0  0  0
 25 44  1  0  0  0
 25 45  1  0  0  0
M  END
>  <Activity>
6.76955

>  <set_rl>
1

>  <Min_dist>
999.9

>  <Avg_dist>
999.9

>  <PC_uM>
0.25

>  <TG_uM>
0.057

>  <RL_uM>
0.17

$$$$
30-4
 Wcorina  11170919323D 1   1.00000     0.00000              
CORINA evaluation license 3.46 0067  05.08.2008
 49 52  0  0  0  0  0  0  0  0999 V2000
    0.0752    1.1866   -0.2493 C   0  0  0  0  0  0
    0.0487   -0.0722    0.1470 N   0  0  0  0  0  0
    1.1658   -0.6738    0.5790 C   0  0  0  0  0  0
    2.3704    0.0717    0.5995 C   0  0  0  0  0  0
    2.3407    1.4189    0.1628 C   0  0  0  0  0  0
    1.1837    1.9208   -0.2458 N   0  0  0  0  0  0
    3.4839    2.1875    0.1632 N   0  0  0  0  0  0
    3.5471   -0.5395    1.0484 C   0  0  0  0  0  0
    3.4799   -1.8469    1.4526 C   0  0  0  0  0  0
    2.2668   -2.5237    1.4083 C   0  0  0  0  0  0
    1.1660   -1.9439    0.9852 N   0  0  0  0  0  0
    4.7191   -2.5499    1.9438 C   0  0  0  0  0  0
    4.9765   -2.1706    3.3395 N   0  0  0  0  0  0
    6.2371   -2.6221    3.7590 C   0  0  0  0  0  0
    6.1175   -3.7454    4.5682 C   0  0  0  0  0  0
    7.2393   -4.3611    5.0858 C   0  0  0  0  0  0
    8.4997   -3.8581    4.8061 C   0  0  0  0  0  0
    8.6297   -2.7304    4.0015 C   0  0  0  0  0  0
    7.5049   -2.1159    3.4811 C   0  0  0  0  0  0
    9.8645   -2.2314    3.7265 O   0  0  0  0  0  0
    9.9248   -1.0716    2.8939 C   0  0  0  0  0  0
    9.6060   -4.4648    5.3160 O   0  0  0  0  0  0
    9.3950   -5.6180    6.1331 C   0  0  0  0  0  0
    4.6420   -4.0605    4.7157 C   0  0  0  0  0  0
    3.9621   -2.7550    4.2433 C   0  0  0  0  0  0
    4.8494    0.2180    1.0856 C   0  0  0  0  0  0
   -1.0990    1.7648   -0.6925 N   0  0  0  0  0  0
    3.6682    2.7830   -0.5800 H   0  0  0  0  0  0
    4.1046    2.1331    0.9066 H   0  0  0  0  0  0
    2.2280   -3.5541    1.7295 H   0  0  0  0  0  0
    4.5739   -3.6284    1.8813 H   0  0  0  0  0  0
    5.5696   -2.2613    1.3261 H   0  0  0  0  0  0
    7.1343   -5.2362    5.7100 H   0  0  0  0  0  0
    7.6099   -1.2406    2.8571 H   0  0  0  0  0  0
   10.9653   -0.7785    2.7541 H   0  0  0  0  0  0
    9.4772   -1.2957    1.9257 H   0  0  0  0  0  0
    9.3780   -0.2559    3.3670 H   0  0  0  0  0  0
    8.8813   -6.3850    5.5535 H   0  0  0  0  0  0
   10.3563   -6.0028    6.4736 H   0  0  0  0  0  0
    8.7866   -5.3458    6.9956 H   0  0  0  0  0  0
    4.3600   -4.8961    4.0751 H   0  0  0  0  0  0
    4.3943   -4.2699    5.7563 H   0  0  0  0  0  0
    3.7685   -2.0927    5.0871 H   0  0  0  0  0  0
    3.0414   -2.9726    3.7020 H   0  0  0  0  0  0
    4.8992    0.8104    1.9991 H   0  0  0  0  0  0
    5.6805   -0.4869    1.0638 H   0  0  0  0  0  0
    4.9104    0.8784    0.2205 H   0  0  0  0  0  0
   -1.9191    1.2470   -0.7075 H   0  0  0  0  0  0
   -1.1032    2.6885   -0.9885 H   0  0  0  0  0  0
  1  2  1  0  0  0
  1  6  2  0  0  0
  1 27  1  0  0  0
  2  3  2  0  0  0
  3  4  1  0  0  0
  3 11  1  0  0  0
  4  5  2  0  0  0
  4  8  1  0  0  0
  5  6  1  0  0  0
  5  7  1  0  0  0
  7 28  1  0  0  0
  7 29  1  0  0  0
  8  9  2  0  0  0
  8 26  1  0  0  0
  9 10  1  0  0  0
  9 12  1  0  0  0
 10 11  2  0  0  0
 10 30  1  0  0  0
 12 13  1  0  0  0
 12 31  1  0  0  0
 12 32  1  0  0  0
 13 14  1  0  0  0
 13 25  1  0  0  0
 14 15  1  0  0  0
 14 19  2  0  0  0
 15 16  2  0  0  0
 15 24  1  0  0  0
 16 17  1  0  0  0
 16 33  1  0  0  0
 17 18  2  0  0  0
 17 22  1  0  0  0
 18 19  1  0  0  0
 18 20  1  0  0  0
 19 34  1  0  0  0
 20 21  1  0  0  0
 21 35  1  0  0  0
 21 36  1  0  0  0
 21 37  1  0  0  0
 22 23  1  0  0  0
 23 38  1  0  0  0
 23 39  1  0  0  0
 23 40  1  0  0  0
 24 25  1  0  0  0
 24 41  1  0  0  0
 24 42  1  0  0  0
 25 43  1  0  0  0
 25 44  1  0  0  0
 26 45  1  0  0  0
 26 46  1  0  0  0
 26 47  1  0  0  0
 27 48  1  0  0  0
 27 49  1  0  0  0
M  END
>  <Activity>
6.63827

>  <set_rl>
1

>  <Min_dist>
999.9

>  <Avg_dist>
999.9

>  <PC_uM>
0.41

>  <TG_uM>
0.049

>  <RL_uM>
0.23

$$$$
32-9
 Wcorina  11170919323D 1   1.00000     0.00000              
CORINA evaluation license 3.46 0067  05.08.2008
 48 50  0  0  0  0  0  0  0  0999 V2000
   -0.0169    1.3950    0.0097 C   0  0  0  0  0  0
    0.0021   -0.0041    0.0020 C   0  0  0  0  0  0
    1.1716   -0.6338   -0.0156 N   0  0  0  0  0  0
    2.3048    0.0523   -0.0259 C   0  0  0  0  0  0
    2.3146    1.3759   -0.0174 N   0  0  0  0  0  0
    1.1813    2.0691    0.0019 C   0  0  0  0  0  0
    1.2422    3.5734    0.0200 C   0  0  0  0  0  0
   -0.1162    4.1535   -0.3770 C   0  0  0  0  0  0
   -1.1585    3.5080    0.4369 N   0  0  0  0  0  0
   -1.3381    2.1124    0.0200 C   0  0  0  0  0  0
   -2.4244    4.2488    0.3550 C   0  0  0  0  0  0
   -3.3888    3.7102    1.3801 C   0  0  0  0  0  0
   -3.4193    4.2542    2.6505 C   0  0  0  0  0  0
   -4.3049    3.7612    3.5968 C   0  0  0  0  0  0
   -5.1629    2.7190    3.2664 C   0  0  0  0  0  0
   -5.1294    2.1751    1.9879 C   0  0  0  0  0  0
   -4.2445    2.6773    1.0458 C   0  0  0  0  0  0
   -5.9667    1.1549    1.6598 O   0  0  0  0  0  0
   -5.8772    0.6450    0.3279 C   0  0  0  0  0  0
   -6.0332    2.2320    4.1925 O   0  0  0  0  0  0
   -7.3241    2.8418    4.2533 C   0  0  0  0  0  0
   -4.3335    4.2965    4.8467 O   0  0  0  0  0  0
   -3.4233    5.3647    5.1159 C   0  0  0  0  0  0
    3.5078   -0.6316   -0.0454 N   0  0  0  0  0  0
   -1.1823   -0.7225    0.0131 N   0  0  0  0  0  0
    1.5022    3.9133    1.0224 H   0  0  0  0  0  0
    2.0011    3.9136   -0.6846 H   0  0  0  0  0  0
   -0.1226    5.2281   -0.1945 H   0  0  0  0  0  0
   -0.3031    3.9580   -1.4329 H   0  0  0  0  0  0
   -1.7701    2.0869   -0.9804 H   0  0  0  0  0  0
   -2.0140    1.6133    0.7144 H   0  0  0  0  0  0
   -2.2403    5.3054    0.5492 H   0  0  0  0  0  0
   -2.8503    4.1313   -0.6415 H   0  0  0  0  0  0
   -2.7522    5.0641    2.9065 H   0  0  0  0  0  0
   -4.2209    2.2581    0.0507 H   0  0  0  0  0  0
   -6.0956    1.4429   -0.3820 H   0  0  0  0  0  0
   -4.8706    0.2664    0.1506 H   0  0  0  0  0  0
   -6.5973   -0.1631    0.1990 H   0  0  0  0  0  0
   -7.2149    3.9017    4.4829 H   0  0  0  0  0  0
   -7.8253    2.7281    3.2921 H   0  0  0  0  0  0
   -7.9169    2.3607    5.0313 H   0  0  0  0  0  0
   -2.4008    5.0163    4.9699 H   0  0  0  0  0  0
   -3.6250    6.1937    4.4376 H   0  0  0  0  0  0
   -3.5496    5.6989    6.1457 H   0  0  0  0  0  0
    3.5142   -1.6016   -0.0515 H   0  0  0  0  0  0
    4.3445   -0.1410   -0.0531 H   0  0  0  0  0  0
   -2.0325   -0.2559    0.0262 H   0  0  0  0  0  0
   -1.1613   -1.6923    0.0076 H   0  0  0  0  0  0
  1  2  1  0  0  0
  1  6  2  0  0  0
  1 10  1  0  0  0
  2  3  2  0  0  0
  2 25  1  0  0  0
  3  4  1  0  0  0
  4  5  2  0  0  0
  4 24  1  0  0  0
  5  6  1  0  0  0
  6  7  1  0  0  0
  7  8  1  0  0  0
  7 26  1  0  0  0
  7 27  1  0  0  0
  8  9  1  0  0  0
  8 28  1  0  0  0
  8 29  1  0  0  0
  9 10  1  0  0  0
  9 11  1  0  0  0
 10 30  1  0  0  0
 10 31  1  0  0  0
 11 12  1  0  0  0
 11 32  1  0  0  0
 11 33  1  0  0  0
 12 13  1  0  0  0
 12 17  2  0  0  0
 13 14  2  0  0  0
 13 34  1  0  0  0
 14 15  1  0  0  0
 14 22  1  0  0  0
 15 16  2  0  0  0
 15 20  1  0  0  0
 16 17  1  0  0  0
 16 18  1  0  0  0
 17 35  1  0  0  0
 18 19  1  0  0  0
 19 36  1  0  0  0
 19 37  1  0  0  0
 19 38  1  0  0  0
 20 21  1  0  0  0
 21 39  1  0  0  0
 21 40  1  0  0  0
 21 41  1  0  0  0
 22 23  1  0  0  0
 23 42  1  0  0  0
 23 43  1  0  0  0
 23 44  1  0  0  0
 24 45  1  0  0  0
 24 46  1  0  0  0
 25 47  1  0  0  0
 25 48  1  0  0  0
M  END
>  <Activity>
5.65758

>  <set_rl>
1

>  <Min_dist>
999.9

>  <Avg_dist>
999.9

>  <PC_uM>
6.9

>  <TG_uM>
0.2

>  <RL_uM>
2.2

$$$$
34-2
 Wcorina  11170919323D 1   1.00000     0.00000              
CORINA evaluation license 3.46 0067  05.08.2008
 41 43  0  0  0  0  0  0  0  0999 V2000
   -0.0159    1.3232    0.0093 N   0  0  0  0  0  0
    0.0021   -0.0041    0.0020 C   0  0  0  0  0  0
    1.1265   -0.6993   -0.0120 N   0  0  0  0  0  0
    2.3072   -0.0815   -0.0200 C   0  0  0  0  0  0
    2.3322    1.3246   -0.0131 C   0  0  0  0  0  0
    1.1141    2.0225    0.0023 C   0  0  0  0  0  0
    1.0908    3.4052    0.0104 N   0  0  0  0  0  0
    3.7435    1.7082   -0.0244 C   0  0  0  0  0  0
    4.4553    0.5700   -0.0368 C   0  0  0  0  0  0
    3.6065   -0.5085   -0.0343 N   0  0  0  0  0  0
    3.8868   -1.4371   -0.0416 H   0  0  0  0  0  0
    4.2931    3.1115   -0.0228 C   0  0  0  0  0  0
    4.2605    3.6472    1.3403 N   0  0  0  0  0  0
    4.7232    4.9432    1.5939 C   0  0  0  0  0  0
    5.2133    5.7215    0.5535 C   0  0  0  0  0  0
    5.6711    7.0015    0.8025 C   0  0  0  0  0  0
    5.6420    7.5109    2.0905 C   0  0  0  0  0  0
    5.1516    6.7337    3.1351 C   0  0  0  0  0  0
    4.6870    5.4529    2.8846 C   0  0  0  0  0  0
    5.1236    7.2327    4.3998 O   0  0  0  0  0  0
    4.6070    6.3790    5.4228 C   0  0  0  0  0  0
    6.0937    8.7714    2.3340 O   0  0  0  0  0  0
    6.5837    9.5125    1.2148 C   0  0  0  0  0  0
   -1.2031   -0.6866    0.0099 N   0  0  0  0  0  0
    0.2427    3.8759    0.0213 H   0  0  0  0  0  0
    1.9225    3.9043    0.0051 H   0  0  0  0  0  0
    5.5336    0.5118   -0.0471 H   0  0  0  0  0  0
    5.3215    3.0993   -0.3839 H   0  0  0  0  0  0
    3.6865    3.7399   -0.6749 H   0  0  0  0  0  0
    3.9181    3.1036    2.0670 H   0  0  0  0  0  0
    5.2370    5.3260   -0.4512 H   0  0  0  0  0  0
    6.0523    7.6052   -0.0078 H   0  0  0  0  0  0
    4.3018    4.8498    3.6935 H   0  0  0  0  0  0
    3.5755    6.1151    5.1892 H   0  0  0  0  0  0
    5.2101    5.4728    5.4788 H   0  0  0  0  0  0
    4.6412    6.8980    6.3807 H   0  0  0  0  0  0
    7.4240    8.9817    0.7674 H   0  0  0  0  0  0
    5.7894    9.6235    0.4767 H   0  0  0  0  0  0
    6.9115   10.4977    1.5468 H   0  0  0  0  0  0
   -2.0390   -0.1947    0.0205 H   0  0  0  0  0  0
   -1.2111   -1.6566    0.0047 H   0  0  0  0  0  0
  1  2  1  0  0  0
  1  6  2  0  0  0
  2  3  2  0  0  0
  2 24  1  0  0  0
  3  4  1  0  0  0
  4  5  2  0  0  0
  4 10  1  0  0  0
  5  6  1  0  0  0
  5  8  1  0  0  0
  6  7  1  0  0  0
  7 25  1  0  0  0
  7 26  1  0  0  0
  8  9  2  0  0  0
  8 12  1  0  0  0
  9 10  1  0  0  0
  9 27  1  0  0  0
 10 11  1  0  0  0
 12 13  1  0  0  0
 12 28  1  0  0  0
 12 29  1  0  0  0
 13 14  1  0  0  0
 13 30  1  0  0  0
 14 15  1  0  0  0
 14 19  2  0  0  0
 15 16  2  0  0  0
 15 31  1  0  0  0
 16 17  1  0  0  0
 16 32  1  0  0  0
 17 18  2  0  0  0
 17 22  1  0  0  0
 18 19  1  0  0  0
 18 20  1  0  0  0
 19 33  1  0  0  0
 20 21  1  0  0  0
 21 34  1  0  0  0
 21 35  1  0  0  0
 21 36  1  0  0  0
 22 23  1  0  0  0
 23 37  1  0  0  0
 23 38  1  0  0  0
 23 39  1  0  0  0
 24 40  1  0  0  0
 24 41  1  0  0  0
M  END
>  <Activity>
3.93554

>  <set_rl>
1

>  <Min_dist>
999.9

>  <Avg_dist>
999.9

>  <PC_uM>
119

>  <TG_uM>
4.3

>  <RL_uM>
116

$$$$
34-7
 Wcorina  11170919323D 1   1.00000     0.00000              
CORINA evaluation license 3.46 0067  05.08.2008
 39 42  0  0  0  0  0  0  0  0999 V2000
   -0.0159    1.3232    0.0093 N   0  0  0  0  0  0
    0.0021   -0.0041    0.0020 C   0  0  0  0  0  0
    1.1265   -0.6993   -0.0120 N   0  0  0  0  0  0
    2.3072   -0.0815   -0.0200 C   0  0  0  0  0  0
    2.3322    1.3246   -0.0131 C   0  0  0  0  0  0
    1.1141    2.0225    0.0023 C   0  0  0  0  0  0
    1.0908    3.4052    0.0104 N   0  0  0  0  0  0
    3.7435    1.7082   -0.0244 C   0  0  0  0  0  0
    4.4553    0.5700   -0.0368 C   0  0  0  0  0  0
    3.6065   -0.5085   -0.0343 N   0  0  0  0  0  0
    3.8868   -1.4371   -0.0416 H   0  0  0  0  0  0
    4.2931    3.1115   -0.0228 C   0  0  0  0  0  0
    4.2605    3.6472    1.3403 N   0  0  0  0  0  0
    4.7212    4.9376    1.5928 C   0  0  0  0  0  0
    5.2091    5.7158    0.5645 C   0  0  0  0  0  0
    5.6716    7.0056    0.8063 C   0  0  0  0  0  0
    5.6561    7.5345    2.0610 C   0  0  0  0  0  0
    5.1669    6.7746    3.1369 C   0  0  0  0  0  0
    4.6873    5.4622    2.9026 C   0  0  0  0  0  0
    4.1930    4.7067    3.9773 C   0  0  0  0  0  0
    4.1749    5.2451    5.2278 C   0  0  0  0  0  0
    4.6403    6.5381    5.4584 C   0  0  0  0  0  0
    5.1384    7.2949    4.4425 C   0  0  0  0  0  0
   -1.2031   -0.6866    0.0099 N   0  0  0  0  0  0
    0.2427    3.8759    0.0213 H   0  0  0  0  0  0
    1.9225    3.9043    0.0051 H   0  0  0  0  0  0
    5.5336    0.5118   -0.0471 H   0  0  0  0  0  0
    5.3215    3.0993   -0.3839 H   0  0  0  0  0  0
    3.6865    3.7399   -0.6749 H   0  0  0  0  0  0
    3.9181    3.1036    2.0670 H   0  0  0  0  0  0
    5.2329    5.3196   -0.4400 H   0  0  0  0  0  0
    6.0494    7.5970   -0.0147 H   0  0  0  0  0  0
    6.0200    8.5374    2.2292 H   0  0  0  0  0  0
    3.8284    3.7034    3.8130 H   0  0  0  0  0  0
    3.7940    4.6615    6.0529 H   0  0  0  0  0  0
    4.6148    6.9421    6.4596 H   0  0  0  0  0  0
    5.4967    8.2951    4.6362 H   0  0  0  0  0  0
   -2.0390   -0.1947    0.0205 H   0  0  0  0  0  0
   -1.2111   -1.6566    0.0047 H   0  0  0  0  0  0
  1  2  1  0  0  0
  1  6  2  0  0  0
  2  3  2  0  0  0
  2 24  1  0  0  0
  3  4  1  0  0  0
  4  5  2  0  0  0
  4 10  1  0  0  0
  5  6  1  0  0  0
  5  8  1  0  0  0
  6  7  1  0  0  0
  7 25  1  0  0  0
  7 26  1  0  0  0
  8  9  2  0  0  0
  8 12  1  0  0  0
  9 10  1  0  0  0
  9 27  1  0  0  0
 10 11  1  0  0  0
 12 13  1  0  0  0
 12 28  1  0  0  0
 12 29  1  0  0  0
 13 14  1  0  0  0
 13 30  1  0  0  0
 14 15  1  0  0  0
 14 19  2  0  0  0
 15 16  2  0  0  0
 15 31  1  0  0  0
 16 17  1  0  0  0
 16 32  1  0  0  0
 17 18  2  0  0  0
 17 33  1  0  0  0
 18 19  1  0  0  0
 18 23  1  0  0  0
 19 20  1  0  0  0
 20 21  2  0  0  0
 20 34  1  0  0  0
 21 22  1  0  0  0
 21 35  1  0  0  0
 22 23  2  0  0  0
 22 36  1  0  0  0
 23 37  1  0  0  0
 24 38  1  0  0  0
 24 39  1  0  0  0
M  END
>  <Activity>
4.22695

>  <set_rl>
1

>  <Min_dist>
999.9

>  <Avg_dist>
999.9

>  <PC_uM>
307

>  <TG_uM>
1.1

>  <RL_uM>
59.3

$$$$
38-12
 Wcorina  11170919323D 1   1.00000     0.00000              
CORINA evaluation license 3.46 0067  05.08.2008
 41 44  0  0  0  0  0  0  0  0999 V2000
    0.4892    1.2152   -0.3839 N   0  0  0  0  0  0
    0.5826   -0.1073   -0.3288 C   0  0  0  0  0  0
    1.6947   -0.7276    0.0291 N   0  0  0  0  0  0
    2.7840   -0.0358    0.3540 C   0  0  0  0  0  0
    2.7265    1.3667    0.3085 C   0  0  0  0  0  0
    1.5283    1.9855   -0.0762 C   0  0  0  0  0  0
    1.4299    3.3637   -0.1344 N   0  0  0  0  0  0
    4.0560    1.8304    0.7130 C   0  0  0  0  0  0
    4.7754    0.7265    0.9587 C   0  0  0  0  0  0
    4.0244   -0.3708    0.7466 O   0  0  0  0  0  0
    4.5208    3.2593    0.8288 C   0  0  0  0  0  0
    4.0597    3.8213    2.1006 N   0  0  0  0  0  0
    4.8097    3.6279    3.2622 C   0  0  0  0  0  0
    4.3695    4.1596    4.4546 C   0  0  0  0  0  0
    5.1262    3.9626    5.6206 C   0  0  0  0  0  0
    6.3316    3.2194    5.5519 C   0  0  0  0  0  0
    6.7512    2.6910    4.3187 C   0  0  0  0  0  0
    5.9985    2.8908    3.2045 C   0  0  0  0  0  0
    7.0871    3.0244    6.7208 C   0  0  0  0  0  0
    6.6535    3.5495    7.8992 C   0  0  0  0  0  0
    5.4683    4.2798    7.9669 C   0  0  0  0  0  0
    4.7106    4.4897    6.8561 C   0  0  0  0  0  0
    2.8114    4.5864    2.1536 C   0  0  0  0  0  0
   -0.5270   -0.8673   -0.6582 N   0  0  0  0  0  0
    0.5657    3.7830   -0.2696 H   0  0  0  0  0  0
    2.2251    3.9111   -0.0400 H   0  0  0  0  0  0
    5.8066    0.7184    1.2794 H   0  0  0  0  0  0
    5.6097    3.2913    0.7909 H   0  0  0  0  0  0
    4.1113    3.8425    0.0040 H   0  0  0  0  0  0
    3.4494    4.7240    4.4920 H   0  0  0  0  0  0
    7.6682    2.1239    4.2573 H   0  0  0  0  0  0
    6.3242    2.4784    2.2609 H   0  0  0  0  0  0
    8.0073    2.4601    6.6843 H   0  0  0  0  0  0
    7.2365    3.3978    8.7955 H   0  0  0  0  0  0
    5.1467    4.6854    8.9147 H   0  0  0  0  0  0
    3.7948    5.0581    6.9232 H   0  0  0  0  0  0
    1.9856    3.9178    2.3967 H   0  0  0  0  0  0
    2.8909    5.3587    2.9187 H   0  0  0  0  0  0
    2.6291    5.0518    1.1850 H   0  0  0  0  0  0
   -1.3522   -0.4315   -0.9230 H   0  0  0  0  0  0
   -0.4792   -1.8355   -0.6243 H   0  0  0  0  0  0
  1  2  1  0  0  0
  1  6  2  0  0  0
  2  3  2  0  0  0
  2 24  1  0  0  0
  3  4  1  0  0  0
  4  5  2  0  0  0
  4 10  1  0  0  0
  5  6  1  0  0  0
  5  8  1  0  0  0
  6  7  1  0  0  0
  7 25  1  0  0  0
  7 26  1  0  0  0
  8  9  2  0  0  0
  8 11  1  0  0  0
  9 10  1  0  0  0
  9 27  1  0  0  0
 11 12  1  0  0  0
 11 28  1  0  0  0
 11 29  1  0  0  0
 12 13  1  0  0  0
 12 23  1  0  0  0
 13 14  1  0  0  0
 13 18  2  0  0  0
 14 15  2  0  0  0
 14 30  1  0  0  0
 15 16  1  0  0  0
 15 22  1  0  0  0
 16 17  2  0  0  0
 16 19  1  0  0  0
 17 18  1  0  0  0
 17 31  1  0  0  0
 18 32  1  0  0  0
 19 20  2  0  0  0
 19 33  1  0  0  0
 20 21  1  0  0  0
 20 34  1  0  0  0
 21 22  2  0  0  0
 21 35  1  0  0  0
 22 36  1  0  0  0
 23 37  1  0  0  0
 23 38  1  0  0  0
 23 39  1  0  0  0
 24 40  1  0  0  0
 24 41  1  0  0  0
M  END
>  <Activity>
4.83565

>  <set_rl>
1

>  <Min_dist>
999.9

>  <Avg_dist>
999.9

>  <PC_uM>
14.8

>  <TG_uM>
23.6

>  <RL_uM>
14.6

$$$$
38-13
 Wcorina  11170919323D 1   1.00000     0.00000              
CORINA evaluation license 3.46 0067  05.08.2008
 32 34  0  0  0  0  0  0  0  0999 V2000
   -0.0159    1.3228    0.0093 N   0  0  0  0  0  0
    0.0021   -0.0041    0.0020 C   0  0  0  0  0  0
    1.1268   -0.7001   -0.0125 N   0  0  0  0  0  0
    2.3066   -0.0847   -0.0204 C   0  0  0  0  0  0
    2.3308    1.3196   -0.0131 C   0  0  0  0  0  0
    1.1160    2.0201    0.0023 C   0  0  0  0  0  0
    1.0960    3.4029    0.0094 N   0  0  0  0  0  0
    3.7480    1.6907   -0.0242 C   0  0  0  0  0  0
    4.4333    0.5390   -0.0367 C   0  0  0  0  0  0
    3.5826   -0.5047   -0.0344 O   0  0  0  0  0  0
    4.3195    3.0852   -0.0227 C   0  0  0  0  0  0
    4.2950    3.6215    1.3404 N   0  0  0  0  0  0
    4.7773    4.9084    1.5936 C   0  0  0  0  0  0
    4.7548    5.4189    2.8867 C   0  0  0  0  0  0
    5.2328    6.6915    3.1339 C   0  0  0  0  0  0
    5.7329    7.4576    2.0968 C   0  0  0  0  0  0
    5.7563    6.9529    0.8087 C   0  0  0  0  0  0
    5.2851    5.6777    0.5556 C   0  0  0  0  0  0
    6.3839    7.9189   -0.4900 Cl  0  0  0  0  0  0
    4.1264    4.4586    4.1892 Cl  0  0  0  0  0  0
   -1.2029   -0.6862    0.0103 N   0  0  0  0  0  0
    0.2491    3.8756    0.0197 H   0  0  0  0  0  0
    1.9289    3.9000    0.0041 H   0  0  0  0  0  0
    5.5104    0.4596   -0.0474 H   0  0  0  0  0  0
    5.3476    3.0569   -0.3837 H   0  0  0  0  0  0
    3.7228    3.7230   -0.6749 H   0  0  0  0  0  0
    3.9441    3.0833    2.0671 H   0  0  0  0  0  0
    5.2156    7.0885    4.1381 H   0  0  0  0  0  0
    6.1056    8.4522    2.2926 H   0  0  0  0  0  0
    5.3081    5.2824   -0.4491 H   0  0  0  0  0  0
   -2.0387   -0.1941    0.0213 H   0  0  0  0  0  0
   -1.2111   -1.6562    0.0052 H   0  0  0  0  0  0
  1  2  1  0  0  0
  1  6  2  0  0  0
  2  3  2  0  0  0
  2 21  1  0  0  0
  3  4  1  0  0  0
  4  5  2  0  0  0
  4 10  1  0  0  0
  5  6  1  0  0  0
  5  8  1  0  0  0
  6  7  1  0  0  0
  7 22  1  0  0  0
  7 23  1  0  0  0
  8  9  2  0  0  0
  8 11  1  0  0  0
  9 10  1  0  0  0
  9 24  1  0  0  0
 11 12  1  0  0  0
 11 25  1  0  0  0
 11 26  1  0  0  0
 12 13  1  0  0  0
 12 27  1  0  0  0
 13 14  1  0  0  0
 13 18  2  0  0  0
 14 15  2  0  0  0
 14 20  1  0  0  0
 15 16  1  0  0  0
 15 28  1  0  0  0
 16 17  2  0  0  0
 16 29  1  0  0  0
 17 18  1  0  0  0
 17 19  1  0  0  0
 18 30  1  0  0  0
 21 31  1  0  0  0
 21 32  1  0  0  0
M  END
>  <Activity>
4.14327

>  <set_rl>
1

>  <Min_dist>
999.9

>  <Avg_dist>
999.9

>  <PC_uM>
50.9

>  <TG_uM>
>47

>  <RL_uM>
71.9

$$$$
33-2
 Wcorina  11170919323D 1   1.00000     0.00000              
CORINA evaluation license 3.46 0067  05.08.2008
 54 56  0  0  0  0  0  0  0  0999 V2000
    0.4259    1.2075   -0.3640 N   0  0  0  0  0  0  0  0  0  0  0  0
    0.5081   -0.1155   -0.3018 C   0  0  0  0  0  0  0  0  0  0  0  0
    1.6172   -0.7433    0.0524 N   0  0  0  0  0  0  0  0  0  0  0  0
    2.7146   -0.0592    0.3660 C   0  0  0  0  0  0  0  0  0  0  0  0
    2.6689    1.3435    0.3127 C   0  0  0  0  0  0  0  0  0  0  0  0
    1.4736    1.9705   -0.0677 C   0  0  0  0  0  0  0  0  0  0  0  0
    1.3868    3.3492   -0.1333 N   0  0  0  0  0  0  0  0  0  0  0  0
    4.0050    1.7980    0.7057 C   0  0  0  0  0  0  0  0  0  0  0  0
    4.7165    0.6893    0.9530 C   0  0  0  0  0  0  0  0  0  0  0  0
    3.9546   -0.4027    0.7524 O   0  0  0  0  0  0  0  0  0  0  0  0
    4.4830    3.2234    0.8100 C   0  0  0  0  0  0  0  0  0  0  0  0
    4.0332    3.7976    2.0805 N   0  0  0  0  0  0  0  0  0  0  0  0
    4.7848    3.6064    3.2346 C   0  0  0  0  0  0  0  0  0  0  0  0
    4.3560    4.1527    4.4412 C   0  0  0  0  0  0  0  0  0  0  0  0
    5.0976    3.9653    5.5851 C   0  0  0  0  0  0  0  0  0  0  0  0
    6.2827    3.2255    5.5347 C   0  0  0  0  0  0  0  0  0  0  0  0
    6.7105    2.6782    4.3216 C   0  0  0  0  0  0  0  0  0  0  0  0
    5.9616    2.8644    3.1823 C   0  0  0  0  0  0  0  0  0  0  0  0
    7.0803    3.0231    6.7591 C   0  0  0  0  0  0  0  0  0  0  0  0
    6.7072    3.5000    7.8135 O   0  0  0  0  0  0  0  0  0  0  0  0
    8.2226    2.3096    6.7089 N   0  0  0  0  0  0  0  0  0  0  0  0
    9.0147    2.1086    7.9248 C   0  0  0  0  0  0  0  0  0  0  0  0
    8.4773    0.9230    8.6842 C   0  0  0  0  0  0  0  0  0  0  0  0
    7.5298    0.3090    8.2539 O   0  0  0  0  0  0  0  0  0  0  0  0
    9.0512    0.5492    9.8386 O   0  0  0  0  0  0  0  0  0  0  0  0
   10.4747    1.8523    7.5458 C   0  0  0  0  0  0  0  0  0  0  0  0
   11.0573    3.1034    6.8854 C   0  0  0  0  0  0  0  0  0  0  0  0
   12.4953    2.8510    6.5121 C   0  0  0  0  0  0  0  0  0  0  0  0
   13.0022    1.7803    6.7499 O   0  0  0  0  0  0  0  0  0  0  0  0
   13.2131    3.8157    5.9154 O   0  0  0  0  0  0  0  0  0  0  0  0
    2.7916    4.5732    2.1350 C   0  0  0  0  0  0  0  0  0  0  0  0
   -0.6102   -0.8677   -0.6194 N   0  0  0  0  0  0  0  0  0  0  0  0
    0.5256    3.7751   -0.2671 H   0  0  0  0  0  0  0  0  0  0  0  0
    2.1870    3.8902   -0.0456 H   0  0  0  0  0  0  0  0  0  0  0  0
    5.7497    0.6741    1.2670 H   0  0  0  0  0  0  0  0  0  0  0  0
    5.5719    3.2455    0.7665 H   0  0  0  0  0  0  0  0  0  0  0  0
    4.0745    3.8049   -0.0165 H   0  0  0  0  0  0  0  0  0  0  0  0
    3.4406    4.7245    4.4794 H   0  0  0  0  0  0  0  0  0  0  0  0
    4.7646    4.3897    6.5208 H   0  0  0  0  0  0  0  0  0  0  0  0
    7.6258    2.1065    4.2794 H   0  0  0  0  0  0  0  0  0  0  0  0
    6.2891    2.4378    2.2457 H   0  0  0  0  0  0  0  0  0  0  0  0
    8.5202    1.9291    5.8678 H   0  0  0  0  0  0  0  0  0  0  0  0
    8.9526    2.9992    8.5502 H   0  0  0  0  0  0  0  0  0  0  0  0
   11.0467    1.6152    8.4429 H   0  0  0  0  0  0  0  0  0  0  0  0
   10.5277    1.0156    6.8493 H   0  0  0  0  0  0  0  0  0  0  0  0
   10.4853    3.3406    5.9883 H   0  0  0  0  0  0  0  0  0  0  0  0
   11.0042    3.9402    7.5819 H   0  0  0  0  0  0  0  0  0  0  0  0
    1.9605    3.9117    2.3797 H   0  0  0  0  0  0  0  0  0  0  0  0
    2.8787    5.3452    2.8994 H   0  0  0  0  0  0  0  0  0  0  0  0
    2.6117    5.0396    1.1664 H   0  0  0  0  0  0  0  0  0  0  0  0
   -1.4333   -0.4262   -0.8812 H   0  0  0  0  0  0  0  0  0  0  0  0
   -0.5706   -1.8361   -0.5800 H   0  0  0  0  0  0  0  0  0  0  0  0
    8.6714   -0.2172   10.2897 H   0  0  0  0  0  0  0  0  0  0  0  0
   14.1312    3.6070    5.6949 H   0  0  0  0  0  0  0  0  0  0  0  0
  1  2  1  0  0  0  0
  1  6  2  0  0  0  0
  2  3  2  0  0  0  0
  2 32  1  0  0  0  0
  3  4  1  0  0  0  0
  4  5  2  0  0  0  0
  4 10  1  0  0  0  0
  5  6  1  0  0  0  0
  5  8  1  0  0  0  0
  6  7  1  0  0  0  0
  7 33  1  0  0  0  0
  7 34  1  0  0  0  0
  8  9  2  0  0  0  0
  8 11  1  0  0  0  0
  9 10  1  0  0  0  0
  9 35  1  0  0  0  0
 11 12  1  0  0  0  0
 11 36  1  0  0  0  0
 11 37  1  0  0  0  0
 12 13  1  0  0  0  0
 12 31  1  0  0  0  0
 13 14  1  0  0  0  0
 13 18  2  0  0  0  0
 14 15  2  0  0  0  0
 14 38  1  0  0  0  0
 15 16  1  0  0  0  0
 15 39  1  0  0  0  0
 16 17  2  0  0  0  0
 16 19  1  0  0  0  0
 17 18  1  0  0  0  0
 17 40  1  0  0  0  0
 18 41  1  0  0  0  0
 19 20  2  0  0  0  0
 19 21  1  0  0  0  0
 21 22  1  0  0  0  0
 21 42  1  0  0  0  0
 22 23  1  0  0  0  0
 22 26  1  0  0  0  0
 22 43  1  0  0  0  0
 23 24  2  0  0  0  0
 23 25  1  0  0  0  0
 25 53  1  0  0  0  0
 26 27  1  0  0  0  0
 26 44  1  0  0  0  0
 26 45  1  0  0  0  0
 27 28  1  0  0  0  0
 27 46  1  0  0  0  0
 27 47  1  0  0  0  0
 28 29  2  0  0  0  0
 28 30  1  0  0  0  0
 30 54  1  0  0  0  0
 31 48  1  0  0  0  0
 31 49  1  0  0  0  0
 31 50  1  0  0  0  0
 32 51  1  0  0  0  0
 32 52  1  0  0  0  0
M  END
>  <Activity>
6.36653

>  <set_rl>
1

>  <Min_dist>
999.9

>  <Avg_dist>
999.9

>  <PC_uM>
0.035

>  <TG_uM>
19.8

>  <RL_uM>
0.43

$$$$
34-9
 Wcorina  11170919323D 1   1.00000     0.00000              
CORINA evaluation license 3.46 0067  05.08.2008
 52 54  0  0  0  0  0  0  0  0999 V2000
   -0.0159    1.3232    0.0093 N   0  0  0  0  0  0  0  0  0  0  0  0
    0.0021   -0.0041    0.0020 C   0  0  0  0  0  0  0  0  0  0  0  0
    1.1265   -0.6993   -0.0120 N   0  0  0  0  0  0  0  0  0  0  0  0
    2.3072   -0.0815   -0.0200 C   0  0  0  0  0  0  0  0  0  0  0  0
    2.3322    1.3246   -0.0131 C   0  0  0  0  0  0  0  0  0  0  0  0
    1.1141    2.0225    0.0023 C   0  0  0  0  0  0  0  0  0  0  0  0
    1.0908    3.4052    0.0104 N   0  0  0  0  0  0  0  0  0  0  0  0
    3.7435    1.7082   -0.0244 C   0  0  0  0  0  0  0  0  0  0  0  0
    4.4553    0.5700   -0.0368 C   0  0  0  0  0  0  0  0  0  0  0  0
    3.6065   -0.5085   -0.0343 N   0  0  0  0  0  0  0  0  0  0  0  0
    3.8868   -1.4371   -0.0416 H   0  0  0  0  0  0  0  0  0  0  0  0
    4.2931    3.1115   -0.0228 C   0  0  0  0  0  0  0  0  0  0  0  0
    4.2605    3.6472    1.3403 N   0  0  0  0  0  0  0  0  0  0  0  0
    4.7203    4.9350    1.5923 C   0  0  0  0  0  0  0  0  0  0  0  0
    4.6886    5.4427    2.8882 C   0  0  0  0  0  0  0  0  0  0  0  0
    5.1429    6.7169    3.1409 C   0  0  0  0  0  0  0  0  0  0  0  0
    5.6366    7.5016    2.0946 C   0  0  0  0  0  0  0  0  0  0  0  0
    5.6671    6.9889    0.7944 C   0  0  0  0  0  0  0  0  0  0  0  0
    5.2166    5.7120    0.5491 C   0  0  0  0  0  0  0  0  0  0  0  0
    6.1239    8.8681    2.3619 C   0  0  0  0  0  0  0  0  0  0  0  0
    6.0965    9.3129    3.4932 O   0  0  0  0  0  0  0  0  0  0  0  0
    6.5996    9.6235    1.3521 N   0  0  0  0  0  0  0  0  0  0  0  0
    7.0836   10.9805    1.6176 C   0  0  0  0  0  0  0  0  0  0  0  0
    8.5229   10.9229    2.0604 C   0  0  0  0  0  0  0  0  0  0  0  0
    9.0866    9.8575    2.1455 O   0  0  0  0  0  0  0  0  0  0  0  0
    9.1787   12.0550    2.3602 O   0  0  0  0  0  0  0  0  0  0  0  0
    6.9755   11.8191    0.3424 C   0  0  0  0  0  0  0  0  0  0  0  0
    5.5024   11.9818   -0.0376 C   0  0  0  0  0  0  0  0  0  0  0  0
    5.3960   12.8078   -1.2936 C   0  0  0  0  0  0  0  0  0  0  0  0
    6.3957   13.2236   -1.8298 O   0  0  0  0  0  0  0  0  0  0  0  0
    4.1905   13.0815   -1.8167 O   0  0  0  0  0  0  0  0  0  0  0  0
   -1.2031   -0.6866    0.0099 N   0  0  0  0  0  0  0  0  0  0  0  0
    0.2427    3.8759    0.0213 H   0  0  0  0  0  0  0  0  0  0  0  0
    1.9225    3.9043    0.0051 H   0  0  0  0  0  0  0  0  0  0  0  0
    5.5336    0.5118   -0.0471 H   0  0  0  0  0  0  0  0  0  0  0  0
    5.3215    3.0993   -0.3839 H   0  0  0  0  0  0  0  0  0  0  0  0
    3.6865    3.7399   -0.6749 H   0  0  0  0  0  0  0  0  0  0  0  0
    3.9181    3.1036    2.0670 H   0  0  0  0  0  0  0  0  0  0  0  0
    4.3067    4.8361    3.6961 H   0  0  0  0  0  0  0  0  0  0  0  0
    5.1177    7.1103    4.1463 H   0  0  0  0  0  0  0  0  0  0  0  0
    6.0476    7.5929   -0.0161 H   0  0  0  0  0  0  0  0  0  0  0  0
    5.2443    5.3136   -0.4543 H   0  0  0  0  0  0  0  0  0  0  0  0
    6.6215    9.2686    0.4496 H   0  0  0  0  0  0  0  0  0  0  0  0
    6.4796   11.4345    2.4032 H   0  0  0  0  0  0  0  0  0  0  0  0
    7.4169   12.8007    0.5146 H   0  0  0  0  0  0  0  0  0  0  0  0
    7.5066   11.3189   -0.4675 H   0  0  0  0  0  0  0  0  0  0  0  0
    5.0610   11.0002   -0.2098 H   0  0  0  0  0  0  0  0  0  0  0  0
    4.9714   12.4820    0.7723 H   0  0  0  0  0  0  0  0  0  0  0  0
   -2.0390   -0.1947    0.0205 H   0  0  0  0  0  0  0  0  0  0  0  0
   -1.2111   -1.6566    0.0047 H   0  0  0  0  0  0  0  0  0  0  0  0
   10.1004   11.9676    2.6395 H   0  0  0  0  0  0  0  0  0  0  0  0
    4.1727   13.6149   -2.6231 H   0  0  0  0  0  0  0  0  0  0  0  0
  1  2  1  0  0  0  0
  1  6  2  0  0  0  0
  2  3  2  0  0  0  0
  2 32  1  0  0  0  0
  3  4  1  0  0  0  0
  4  5  2  0  0  0  0
  4 10  1  0  0  0  0
  5  6  1  0  0  0  0
  5  8  1  0  0  0  0
  6  7  1  0  0  0  0
  7 33  1  0  0  0  0
  7 34  1  0  0  0  0
  8  9  2  0  0  0  0
  8 12  1  0  0  0  0
  9 10  1  0  0  0  0
  9 35  1  0  0  0  0
 10 11  1  0  0  0  0
 12 13  1  0  0  0  0
 12 36  1  0  0  0  0
 12 37  1  0  0  0  0
 13 14  1  0  0  0  0
 13 38  1  0  0  0  0
 14 15  1  0  0  0  0
 14 19  2  0  0  0  0
 15 16  2  0  0  0  0
 15 39  1  0  0  0  0
 16 17  1  0  0  0  0
 16 40  1  0  0  0  0
 17 18  2  0  0  0  0
 17 20  1  0  0  0  0
 18 19  1  0  0  0  0
 18 41  1  0  0  0  0
 19 42  1  0  0  0  0
 20 21  2  0  0  0  0
 20 22  1  0  0  0  0
 22 23  1  0  0  0  0
 22 43  1  0  0  0  0
 23 24  1  0  0  0  0
 23 27  1  0  0  0  0
 23 44  1  0  0  0  0
 24 25  2  0  0  0  0
 24 26  1  0  0  0  0
 26 51  1  0  0  0  0
 27 28  1  0  0  0  0
 27 45  1  0  0  0  0
 27 46  1  0  0  0  0
 28 29  1  0  0  0  0
 28 47  1  0  0  0  0
 28 48  1  0  0  0  0
 29 30  2  0  0  0  0
 29 31  1  0  0  0  0
 31 52  1  0  0  0  0
 32 49  1  0  0  0  0
 32 50  1  0  0  0  0
M  END
>  <Activity>
7.35655

>  <set_rl>
1

>  <Min_dist>
999.9

>  <Avg_dist>
999.9

>  <PC_uM>
0.038

>  <TG_uM>
0.21

>  <RL_uM>
0.044

$$$$
38-6
 Wcorina  11170919323D 1   1.00000     0.00000              
CORINA evaluation license 3.46 0067  05.08.2008
 38 41  0  0  0  0  0  0  0  0999 V2000
   -0.0159    1.3228    0.0093 N   0  0  0  0  0  0
    0.0021   -0.0041    0.0020 C   0  0  0  0  0  0
    1.1268   -0.7001   -0.0125 N   0  0  0  0  0  0
    2.3066   -0.0847   -0.0204 C   0  0  0  0  0  0
    2.3308    1.3196   -0.0131 C   0  0  0  0  0  0
    1.1160    2.0201    0.0023 C   0  0  0  0  0  0
    1.0960    3.4029    0.0094 N   0  0  0  0  0  0
    3.7480    1.6907   -0.0242 C   0  0  0  0  0  0
    4.4333    0.5390   -0.0367 C   0  0  0  0  0  0
    3.5826   -0.5047   -0.0344 O   0  0  0  0  0  0
    4.3195    3.0852   -0.0227 C   0  0  0  0  0  0
    4.2950    3.6215    1.3404 N   0  0  0  0  0  0
    4.7758    4.9045    1.5929 C   0  0  0  0  0  0
    4.7554    5.4277    2.9040 C   0  0  0  0  0  0
    5.2499    6.7343    3.1371 C   0  0  0  0  0  0
    5.7513    7.4866    2.0609 C   0  0  0  0  0  0
    5.7587    6.9576    0.8065 C   0  0  0  0  0  0
    5.2812    5.6725    0.5657 C   0  0  0  0  0  0
    5.2294    7.2553    4.4425 C   0  0  0  0  0  0
    4.7364    6.4997    5.4616 C   0  0  0  0  0  0
    4.2506    5.2142    5.2311 C   0  0  0  0  0  0
    4.2542    4.6781    3.9795 C   0  0  0  0  0  0
   -1.2029   -0.6862    0.0103 N   0  0  0  0  0  0
    0.2491    3.8756    0.0197 H   0  0  0  0  0  0
    1.9289    3.9000    0.0041 H   0  0  0  0  0  0
    5.5104    0.4596   -0.0474 H   0  0  0  0  0  0
    5.3476    3.0569   -0.3837 H   0  0  0  0  0  0
    3.7228    3.7230   -0.6749 H   0  0  0  0  0  0
    3.9441    3.0833    2.0671 H   0  0  0  0  0  0
    6.1301    8.4839    2.2289 H   0  0  0  0  0  0
    6.1458    7.5428   -0.0144 H   0  0  0  0  0  0
    5.3027    5.2743   -0.4379 H   0  0  0  0  0  0
    5.6034    8.2498    4.6360 H   0  0  0  0  0  0
    4.7218    6.9023    6.4637 H   0  0  0  0  0  0
    3.8653    4.6348    6.0571 H   0  0  0  0  0  0
    3.8735    3.6808    3.8152 H   0  0  0  0  0  0
   -2.0387   -0.1941    0.0213 H   0  0  0  0  0  0
   -1.2111   -1.6562    0.0052 H   0  0  0  0  0  0
  1  2  1  0  0  0
  1  6  2  0  0  0
  2  3  2  0  0  0
  2 23  1  0  0  0
  3  4  1  0  0  0
  4  5  2  0  0  0
  4 10  1  0  0  0
  5  6  1  0  0  0
  5  8  1  0  0  0
  6  7  1  0  0  0
  7 24  1  0  0  0
  7 25  1  0  0  0
  8  9  2  0  0  0
  8 11  1  0  0  0
  9 10  1  0  0  0
  9 26  1  0  0  0
 11 12  1  0  0  0
 11 27  1  0  0  0
 11 28  1  0  0  0
 12 13  1  0  0  0
 12 29  1  0  0  0
 13 14  1  0  0  0
 13 18  2  0  0  0
 14 15  2  0  0  0
 14 22  1  0  0  0
 15 16  1  0  0  0
 15 19  1  0  0  0
 16 17  2  0  0  0
 16 30  1  0  0  0
 17 18  1  0  0  0
 17 31  1  0  0  0
 18 32  1  0  0  0
 19 20  2  0  0  0
 19 33  1  0  0  0
 20 21  1  0  0  0
 20 34  1  0  0  0
 21 22  2  0  0  0
 21 35  1  0  0  0
 22 36  1  0  0  0
 23 37  1  0  0  0
 23 38  1  0  0  0
M  END
>  <Activity>
4.92082

>  <set_rl>
1

>  <Min_dist>
999.9

>  <Avg_dist>
999.9

>  <PC_uM>
13.5

>  <TG_uM>
37

>  <RL_uM>
12

$$$$
34-4
 Wcorina  11170919323D 1   1.00000     0.00000              
CORINA evaluation license 3.46 0067  05.08.2008
 41 43  0  0  0  0  0  0  0  0999 V2000
   -0.0159    1.3232    0.0093 N   0  0  0  0  0  0
    0.0021   -0.0041    0.0020 C   0  0  0  0  0  0
    1.1265   -0.6993   -0.0120 N   0  0  0  0  0  0
    2.3072   -0.0815   -0.0200 C   0  0  0  0  0  0
    2.3322    1.3246   -0.0131 C   0  0  0  0  0  0
    1.1141    2.0225    0.0023 C   0  0  0  0  0  0
    1.0908    3.4052    0.0104 N   0  0  0  0  0  0
    3.7435    1.7082   -0.0244 C   0  0  0  0  0  0
    4.4553    0.5700   -0.0368 C   0  0  0  0  0  0
    3.6065   -0.5085   -0.0343 N   0  0  0  0  0  0
    3.8868   -1.4371   -0.0416 H   0  0  0  0  0  0
    4.2931    3.1115   -0.0228 C   0  0  0  0  0  0
    4.2605    3.6472    1.3403 N   0  0  0  0  0  0
    4.7232    4.9434    1.5939 C   0  0  0  0  0  0
    5.2130    5.7219    0.5557 C   0  0  0  0  0  0
    5.6703    7.0058    0.8100 C   0  0  0  0  0  0
    5.6386    7.5113    2.1013 C   0  0  0  0  0  0
    5.1512    6.7369    3.1379 C   0  0  0  0  0  0
    4.6875    5.4562    2.8886 C   0  0  0  0  0  0
    4.2022    4.6971    3.9086 O   0  0  0  0  0  0
    4.1955    5.2870    5.2101 C   0  0  0  0  0  0
    6.1507    7.7698   -0.2071 O   0  0  0  0  0  0
    6.6053    9.0828    0.1266 C   0  0  0  0  0  0
   -1.2031   -0.6866    0.0099 N   0  0  0  0  0  0
    0.2427    3.8759    0.0213 H   0  0  0  0  0  0
    1.9225    3.9043    0.0051 H   0  0  0  0  0  0
    5.5336    0.5118   -0.0471 H   0  0  0  0  0  0
    5.3215    3.0993   -0.3839 H   0  0  0  0  0  0
    3.6865    3.7399   -0.6749 H   0  0  0  0  0  0
    3.9181    3.1036    2.0670 H   0  0  0  0  0  0
    5.2385    5.3282   -0.4497 H   0  0  0  0  0  0
    5.9957    8.5116    2.2974 H   0  0  0  0  0  0
    5.1280    7.1330    4.1424 H   0  0  0  0  0  0
    3.7850    4.5775    5.9285 H   0  0  0  0  0  0
    5.2147    5.5460    5.4969 H   0  0  0  0  0  0
    3.5816    6.1876    5.1976 H   0  0  0  0  0  0
    5.7829    9.6533    0.5582 H   0  0  0  0  0  0
    7.4180    9.0131    0.8496 H   0  0  0  0  0  0
    6.9618    9.5836   -0.7736 H   0  0  0  0  0  0
   -2.0390   -0.1947    0.0205 H   0  0  0  0  0  0
   -1.2111   -1.6566    0.0047 H   0  0  0  0  0  0
  1  2  1  0  0  0
  1  6  2  0  0  0
  2  3  2  0  0  0
  2 24  1  0  0  0
  3  4  1  0  0  0
  4  5  2  0  0  0
  4 10  1  0  0  0
  5  6  1  0  0  0
  5  8  1  0  0  0
  6  7  1  0  0  0
  7 25  1  0  0  0
  7 26  1  0  0  0
  8  9  2  0  0  0
  8 12  1  0  0  0
  9 10  1  0  0  0
  9 27  1  0  0  0
 10 11  1  0  0  0
 12 13  1  0  0  0
 12 28  1  0  0  0
 12 29  1  0  0  0
 13 14  1  0  0  0
 13 30  1  0  0  0
 14 15  1  0  0  0
 14 19  2  0  0  0
 15 16  2  0  0  0
 15 31  1  0  0  0
 16 17  1  0  0  0
 16 22  1  0  0  0
 17 18  2  0  0  0
 17 32  1  0  0  0
 18 19  1  0  0  0
 18 33  1  0  0  0
 19 20  1  0  0  0
 20 21  1  0  0  0
 21 34  1  0  0  0
 21 35  1  0  0  0
 21 36  1  0  0  0
 22 23  1  0  0  0
 23 37  1  0  0  0
 23 38  1  0  0  0
 23 39  1  0  0  0
 24 40  1  0  0  0
 24 41  1  0  0  0
M  END
>  <Activity>
3.80688

>  <set_rl>
1

>  <Min_dist>
999.9

>  <Avg_dist>
999.9

>  <PC_uM>
45.7

>  <TG_uM>
1.7

>  <RL_uM>
156

$$$$
34-6
 Wcorina  11170919323D 1   1.00000     0.00000              
CORINA evaluation license 3.46 0067  05.08.2008
 33 35  0  0  0  0  0  0  0  0999 V2000
   -0.0159    1.3232    0.0093 N   0  0  0  0  0  0
    0.0021   -0.0041    0.0020 C   0  0  0  0  0  0
    1.1265   -0.6993   -0.0120 N   0  0  0  0  0  0
    2.3072   -0.0815   -0.0200 C   0  0  0  0  0  0
    2.3322    1.3246   -0.0131 C   0  0  0  0  0  0
    1.1141    2.0225    0.0023 C   0  0  0  0  0  0
    1.0908    3.4052    0.0104 N   0  0  0  0  0  0
    3.7435    1.7082   -0.0244 C   0  0  0  0  0  0
    4.4553    0.5700   -0.0368 C   0  0  0  0  0  0
    3.6065   -0.5085   -0.0343 N   0  0  0  0  0  0
    3.8868   -1.4371   -0.0416 H   0  0  0  0  0  0
    4.2931    3.1115   -0.0228 C   0  0  0  0  0  0
    4.2605    3.6472    1.3403 N   0  0  0  0  0  0
    4.7225    4.9415    1.5936 C   0  0  0  0  0  0
    4.6921    5.4507    2.8857 C   0  0  0  0  0  0
    5.1492    6.7300    3.1339 C   0  0  0  0  0  0
    5.6371    7.5054    2.0968 C   0  0  0  0  0  0
    5.6688    7.0009    0.8076 C   0  0  0  0  0  0
    5.2181    5.7186    0.5550 C   0  0  0  0  0  0
    6.2815    7.9766   -0.4910 Cl  0  0  0  0  0  0
    6.2097    9.1135    2.4124 Cl  0  0  0  0  0  0
   -1.2031   -0.6866    0.0099 N   0  0  0  0  0  0
    0.2427    3.8759    0.0213 H   0  0  0  0  0  0
    1.9225    3.9043    0.0051 H   0  0  0  0  0  0
    5.5336    0.5118   -0.0471 H   0  0  0  0  0  0
    5.3215    3.0993   -0.3839 H   0  0  0  0  0  0
    3.6865    3.7399   -0.6749 H   0  0  0  0  0  0
    3.9181    3.1036    2.0670 H   0  0  0  0  0  0
    4.3109    4.8465    3.6957 H   0  0  0  0  0  0
    5.1256    7.1259    4.1384 H   0  0  0  0  0  0
    5.2470    5.3236   -0.4497 H   0  0  0  0  0  0
   -2.0390   -0.1947    0.0205 H   0  0  0  0  0  0
   -1.2111   -1.6566    0.0047 H   0  0  0  0  0  0
  1  2  1  0  0  0
  1  6  2  0  0  0
  2  3  2  0  0  0
  2 22  1  0  0  0
  3  4  1  0  0  0
  4  5  2  0  0  0
  4 10  1  0  0  0
  5  6  1  0  0  0
  5  8  1  0  0  0
  6  7  1  0  0  0
  7 23  1  0  0  0
  7 24  1  0  0  0
  8  9  2  0  0  0
  8 12  1  0  0  0
  9 10  1  0  0  0
  9 25  1  0  0  0
 10 11  1  0  0  0
 12 13  1  0  0  0
 12 26  1  0  0  0
 12 27  1  0  0  0
 13 14  1  0  0  0
 13 28  1  0  0  0
 14 15  1  0  0  0
 14 19  2  0  0  0
 15 16  2  0  0  0
 15 29  1  0  0  0
 16 17  1  0  0  0
 16 30  1  0  0  0
 17 18  2  0  0  0
 17 21  1  0  0  0
 18 19  1  0  0  0
 18 20  1  0  0  0
 19 31  1  0  0  0
 22 32  1  0  0  0
 22 33  1  0  0  0
M  END
>  <Activity>
4.84164

>  <set_rl>
1

>  <Min_dist>
999.9

>  <Avg_dist>
999.9

>  <PC_uM>
35.3

>  <TG_uM>
1.4

>  <RL_uM>
14.4

$$$$
35-4
 Wcorina  11170919323D 1   1.00000     0.00000              
CORINA evaluation license 3.46 0067  05.08.2008
 42 45  0  0  0  0  0  0  0  0999 V2000
    5.9769   -0.9975    1.4299 N   0  0  0  0  0  0
    5.1165   -1.9836    1.2079 C   0  0  0  0  0  0
    3.9381   -1.7845    0.6426 N   0  0  0  0  0  0
    3.5624   -0.5623    0.2673 C   0  0  0  0  0  0
    4.4450    0.5107    0.4851 C   0  0  0  0  0  0
    5.6864    0.2534    1.0882 C   0  0  0  0  0  0
    6.5860    1.2777    1.3209 N   0  0  0  0  0  0
    3.7691    1.7050   -0.0210 C   0  0  0  0  0  0
    2.5769    1.3062   -0.4920 C   0  0  0  0  0  0
    2.4414   -0.0494   -0.3251 N   0  0  0  0  0  0
    1.6648   -0.5674   -0.5884 H   0  0  0  0  0  0
    4.3073    3.1126   -0.0145 C   0  0  0  0  0  0
    4.1636    3.6855    1.3305 N   0  0  0  0  0  0
    4.9501    4.8265    1.4738 C   0  0  0  0  0  0
    4.7505    5.9166    0.6535 C   0  0  0  0  0  0
    5.5308    7.0608    0.7885 C   0  0  0  0  0  0
    6.5107    7.1365    1.7310 C   0  0  0  0  0  0
    6.7465    6.0475    2.5872 C   0  0  0  0  0  0
    5.9547    4.8793    2.4638 C   0  0  0  0  0  0
    6.1871    3.7947    3.3240 C   0  0  0  0  0  0
    7.1645    3.8807    4.2680 C   0  0  0  0  0  0
    7.9397    5.0317    4.3946 C   0  0  0  0  0  0
    7.7509    6.0977    3.5695 C   0  0  0  0  0  0
    2.7553    3.9758    1.6313 C   0  0  0  0  0  0
    5.4667   -3.2702    1.5825 N   0  0  0  0  0  0
    7.4085    1.1004    1.8035 H   0  0  0  0  0  0
    6.3944    2.1733    1.0015 H   0  0  0  0  0  0
    1.8359    1.9546   -0.9357 H   0  0  0  0  0  0
    5.3610    3.1000   -0.2934 H   0  0  0  0  0  0
    3.7496    3.7181   -0.7289 H   0  0  0  0  0  0
    3.9802    5.8819   -0.1027 H   0  0  0  0  0  0
    5.3565    7.9026    0.1348 H   0  0  0  0  0  0
    7.1066    8.0328    1.8202 H   0  0  0  0  0  0
    5.5935    2.8967    3.2377 H   0  0  0  0  0  0
    7.3413    3.0447    4.9286 H   0  0  0  0  0  0
    8.7086    5.0748    5.1518 H   0  0  0  0  0  0
    8.3599    6.9829    3.6784 H   0  0  0  0  0  0
    2.1925    3.0431    1.6706 H   0  0  0  0  0  0
    2.6864    4.4825    2.5939 H   0  0  0  0  0  0
    2.3421    4.6170    0.8527 H   0  0  0  0  0  0
    6.3269   -3.4370    1.9986 H   0  0  0  0  0  0
    4.8517   -4.0044    1.4289 H   0  0  0  0  0  0
  1  2  1  0  0  0
  1  6  2  0  0  0
  2  3  2  0  0  0
  2 25  1  0  0  0
  3  4  1  0  0  0
  4  5  2  0  0  0
  4 10  1  0  0  0
  5  6  1  0  0  0
  5  8  1  0  0  0
  6  7  1  0  0  0
  7 26  1  0  0  0
  7 27  1  0  0  0
  8  9  2  0  0  0
  8 12  1  0  0  0
  9 10  1  0  0  0
  9 28  1  0  0  0
 10 11  1  0  0  0
 12 13  1  0  0  0
 12 29  1  0  0  0
 12 30  1  0  0  0
 13 14  1  0  0  0
 13 24  1  0  0  0
 14 15  1  0  0  0
 14 19  2  0  0  0
 15 16  2  0  0  0
 15 31  1  0  0  0
 16 17  1  0  0  0
 16 32  1  0  0  0
 17 18  2  0  0  0
 17 33  1  0  0  0
 18 19  1  0  0  0
 18 23  1  0  0  0
 19 20  1  0  0  0
 20 21  2  0  0  0
 20 34  1  0  0  0
 21 22  1  0  0  0
 21 35  1  0  0  0
 22 23  2  0  0  0
 22 36  1  0  0  0
 23 37  1  0  0  0
 24 38  1  0  0  0
 24 39  1  0  0  0
 24 40  1  0  0  0
 25 41  1  0  0  0
 25 42  1  0  0  0
M  END
>  <Activity>
5.08619

>  <set_rl>
1

>  <Min_dist>
999.9

>  <Avg_dist>
999.9

>  <PC_uM>
209

>  <TG_uM>
0.87

>  <RL_uM>
8.2

$$$$
35-5
 Wcorina  11170919323D 1   1.00000     0.00000              
CORINA evaluation license 3.46 0067  05.08.2008
 40 42  0  0  0  0  0  0  0  0999 V2000
   -0.0159    1.3232    0.0093 N   0  0  0  0  0  0
    0.0021   -0.0041    0.0020 C   0  0  0  0  0  0
    1.1265   -0.6993   -0.0120 N   0  0  0  0  0  0
    2.3072   -0.0815   -0.0200 C   0  0  0  0  0  0
    2.3322    1.3246   -0.0131 C   0  0  0  0  0  0
    1.1141    2.0225    0.0023 C   0  0  0  0  0  0
    1.0908    3.4052    0.0104 N   0  0  0  0  0  0
    3.7435    1.7082   -0.0244 C   0  0  0  0  0  0
    4.4553    0.5700   -0.0368 C   0  0  0  0  0  0
    3.6065   -0.5085   -0.0343 N   0  0  0  0  0  0
    3.8868   -1.4371   -0.0416 H   0  0  0  0  0  0
    4.2931    3.1115   -0.0228 C   0  0  0  0  0  0
    4.5295    3.6664    1.6879 S   0  0  0  0  0  0
    5.1661    5.2976    1.4911 C   0  0  0  0  0  0
    5.3566    5.8201    0.2181 C   0  0  0  0  0  0
    5.8563    7.0990    0.0623 C   0  0  0  0  0  0
    6.1679    7.8630    1.1753 C   0  0  0  0  0  0
    5.9780    7.3431    2.4519 C   0  0  0  0  0  0
    5.4722    6.0632    2.6087 C   0  0  0  0  0  0
    6.2842    8.0925    3.5446 O   0  0  0  0  0  0
    6.0637    7.4948    4.8237 C   0  0  0  0  0  0
    6.6604    9.1222    1.0199 O   0  0  0  0  0  0
    6.8304    9.5917   -0.3191 C   0  0  0  0  0  0
   -1.2031   -0.6866    0.0099 N   0  0  0  0  0  0
    0.2427    3.8759    0.0213 H   0  0  0  0  0  0
    1.9225    3.9043    0.0051 H   0  0  0  0  0  0
    5.5336    0.5118   -0.0471 H   0  0  0  0  0  0
    5.2495    3.1276   -0.5455 H   0  0  0  0  0  0
    3.5922    3.7767   -0.5271 H   0  0  0  0  0  0
    5.1143    5.2261   -0.6507 H   0  0  0  0  0  0
    6.0044    7.5033   -0.9282 H   0  0  0  0  0  0
    5.3200    5.6596    3.5988 H   0  0  0  0  0  0
    5.0090    7.2406    4.9291 H   0  0  0  0  0  0
    6.6658    6.5904    4.9108 H   0  0  0  0  0  0
    6.3482    8.1974    5.6069 H   0  0  0  0  0  0
    7.5245    8.9384   -0.8478 H   0  0  0  0  0  0
    5.8676    9.5886   -0.8302 H   0  0  0  0  0  0
    7.2286   10.6062   -0.3006 H   0  0  0  0  0  0
   -2.0390   -0.1947    0.0205 H   0  0  0  0  0  0
   -1.2111   -1.6566    0.0047 H   0  0  0  0  0  0
  1  2  1  0  0  0
  1  6  2  0  0  0
  2  3  2  0  0  0
  2 24  1  0  0  0
  3  4  1  0  0  0
  4  5  2  0  0  0
  4 10  1  0  0  0
  5  6  1  0  0  0
  5  8  1  0  0  0
  6  7  1  0  0  0
  7 25  1  0  0  0
  7 26  1  0  0  0
  8  9  2  0  0  0
  8 12  1  0  0  0
  9 10  1  0  0  0
  9 27  1  0  0  0
 10 11  1  0  0  0
 12 13  1  0  0  0
 12 28  1  0  0  0
 12 29  1  0  0  0
 13 14  1  0  0  0
 14 15  1  0  0  0
 14 19  2  0  0  0
 15 16  2  0  0  0
 15 30  1  0  0  0
 16 17  1  0  0  0
 16 31  1  0  0  0
 17 18  2  0  0  0
 17 22  1  0  0  0
 18 19  1  0  0  0
 18 20  1  0  0  0
 19 32  1  0  0  0
 20 21  1  0  0  0
 21 33  1  0  0  0
 21 34  1  0  0  0
 21 35  1  0  0  0
 22 23  1  0  0  0
 23 36  1  0  0  0
 23 37  1  0  0  0
 23 38  1  0  0  0
 24 39  1  0  0  0
 24 40  1  0  0  0
M  END
>  <Activity>
4.77728

>  <set_rl>
1

>  <Min_dist>
999.9

>  <Avg_dist>
999.9

>  <PC_uM>
11.1

>  <TG_uM>
2.6

>  <RL_uM>
16.7

$$$$
35-6
 Wcorina  11170919323D 1   1.00000     0.00000              
CORINA evaluation license 3.46 0067  05.08.2008
 32 34  0  0  0  0  0  0  0  0999 V2000
   -0.0159    1.3232    0.0093 N   0  0  0  0  0  0
    0.0021   -0.0041    0.0020 C   0  0  0  0  0  0
    1.1265   -0.6993   -0.0120 N   0  0  0  0  0  0
    2.3072   -0.0815   -0.0200 C   0  0  0  0  0  0
    2.3322    1.3246   -0.0131 C   0  0  0  0  0  0
    1.1141    2.0225    0.0023 C   0  0  0  0  0  0
    1.0908    3.4052    0.0104 N   0  0  0  0  0  0
    3.7435    1.7082   -0.0244 C   0  0  0  0  0  0
    4.4553    0.5700   -0.0368 C   0  0  0  0  0  0
    3.6065   -0.5085   -0.0343 N   0  0  0  0  0  0
    3.8868   -1.4371   -0.0416 H   0  0  0  0  0  0
    4.2931    3.1115   -0.0228 C   0  0  0  0  0  0
    4.5295    3.6664    1.6879 S   0  0  0  0  0  0
    5.1661    5.2976    1.4911 C   0  0  0  0  0  0
    5.4782    6.0627    2.6086 C   0  0  0  0  0  0
    5.9774    7.3405    2.4519 C   0  0  0  0  0  0
    6.1669    7.8604    1.1834 C   0  0  0  0  0  0
    5.8571    7.1009    0.0676 C   0  0  0  0  0  0
    5.3625    5.8191    0.2185 C   0  0  0  0  0  0
    6.0964    7.7567   -1.5219 Cl  0  0  0  0  0  0
    6.7937    9.4677    0.9907 Cl  0  0  0  0  0  0
   -1.2031   -0.6866    0.0099 N   0  0  0  0  0  0
    0.2427    3.8759    0.0213 H   0  0  0  0  0  0
    1.9225    3.9043    0.0051 H   0  0  0  0  0  0
    5.5336    0.5118   -0.0471 H   0  0  0  0  0  0
    5.2495    3.1276   -0.5455 H   0  0  0  0  0  0
    3.5922    3.7767   -0.5271 H   0  0  0  0  0  0
    5.3299    5.6582    3.5990 H   0  0  0  0  0  0
    6.2199    7.9351    3.3203 H   0  0  0  0  0  0
    5.1250    5.2252   -0.6517 H   0  0  0  0  0  0
   -2.0390   -0.1947    0.0205 H   0  0  0  0  0  0
   -1.2111   -1.6566    0.0047 H   0  0  0  0  0  0
  1  2  1  0  0  0
  1  6  2  0  0  0
  2  3  2  0  0  0
  2 22  1  0  0  0
  3  4  1  0  0  0
  4  5  2  0  0  0
  4 10  1  0  0  0
  5  6  1  0  0  0
  5  8  1  0  0  0
  6  7  1  0  0  0
  7 23  1  0  0  0
  7 24  1  0  0  0
  8  9  2  0  0  0
  8 12  1  0  0  0
  9 10  1  0  0  0
  9 25  1  0  0  0
 10 11  1  0  0  0
 12 13  1  0  0  0
 12 26  1  0  0  0
 12 27  1  0  0  0
 13 14  1  0  0  0
 14 15  1  0  0  0
 14 19  2  0  0  0
 15 16  2  0  0  0
 15 28  1  0  0  0
 16 17  1  0  0  0
 16 29  1  0  0  0
 17 18  2  0  0  0
 17 21  1  0  0  0
 18 19  1  0  0  0
 18 20  1  0  0  0
 19 30  1  0  0  0
 22 31  1  0  0  0
 22 32  1  0  0  0
M  END
>  <Activity>
5.27572

>  <set_rl>
1

>  <Min_dist>
999.9

>  <Avg_dist>
999.9

>  <PC_uM>
58.5

>  <TG_uM>
11.6

>  <RL_uM>
5.3

$$$$
38-11
 Wcorina  11170919323D 1   1.00000     0.00000              
CORINA evaluation license 3.46 0067  05.08.2008
 42 45  0  0  0  0  0  0  0  0999 V2000
   -0.0159    1.3228    0.0093 N   0  0  0  0  0  0
    0.0021   -0.0041    0.0020 C   0  0  0  0  0  0
    1.1268   -0.7001   -0.0125 N   0  0  0  0  0  0
    2.3066   -0.0847   -0.0204 C   0  0  0  0  0  0
    2.3308    1.3196   -0.0131 C   0  0  0  0  0  0
    1.1160    2.0201    0.0023 C   0  0  0  0  0  0
    1.0960    3.4029    0.0094 N   0  0  0  0  0  0
    3.7480    1.6907   -0.0242 C   0  0  0  0  0  0
    4.4333    0.5390   -0.0367 C   0  0  0  0  0  0
    3.5826   -0.5047   -0.0344 O   0  0  0  0  0  0
    4.3195    3.0852   -0.0227 C   0  0  0  0  0  0
    4.2950    3.6215    1.3404 N   0  0  0  0  0  0
    4.7763    4.9058    1.5931 C   0  0  0  0  0  0
    5.2790    5.6783    0.5555 C   0  0  0  0  0  0
    5.7552    6.9501    0.8081 C   0  0  0  0  0  0
    5.7344    7.4616    2.0941 C   0  0  0  0  0  0
    5.2375    6.7050    3.1359 C   0  0  0  0  0  0
    4.7490    5.4233    2.8934 C   0  0  0  0  0  0
    4.2088    4.6085    4.0085 C   0  0  0  0  0  0
    4.9427    4.4571    5.1837 C   0  0  0  0  0  0
    4.4348    3.6980    6.2183 C   0  0  0  0  0  0
    3.1999    3.0880    6.0906 C   0  0  0  0  0  0
    2.4673    3.2344    4.9263 C   0  0  0  0  0  0
    2.9627    3.9958    3.8874 C   0  0  0  0  0  0
   -1.2029   -0.6862    0.0103 N   0  0  0  0  0  0
    0.2491    3.8756    0.0197 H   0  0  0  0  0  0
    1.9289    3.9000    0.0041 H   0  0  0  0  0  0
    5.5104    0.4596   -0.0474 H   0  0  0  0  0  0
    5.3476    3.0569   -0.3837 H   0  0  0  0  0  0
    3.7228    3.7230   -0.6749 H   0  0  0  0  0  0
    3.9441    3.0833    2.0671 H   0  0  0  0  0  0
    5.2983    5.2847   -0.4500 H   0  0  0  0  0  0
    6.1460    7.5482   -0.0018 H   0  0  0  0  0  0
    6.1089    8.4567    2.2831 H   0  0  0  0  0  0
    5.2238    7.1079    4.1379 H   0  0  0  0  0  0
    5.9071    4.9326    5.2844 H   0  0  0  0  0  0
    5.0027    3.5797    7.1293 H   0  0  0  0  0  0
    2.8063    2.4948    6.9028 H   0  0  0  0  0  0
    1.5041    2.7552    4.8318 H   0  0  0  0  0  0
    2.3879    4.1134    2.9807 H   0  0  0  0  0  0
   -2.0387   -0.1941    0.0213 H   0  0  0  0  0  0
   -1.2111   -1.6562    0.0052 H   0  0  0  0  0  0
  1  2  1  0  0  0
  1  6  2  0  0  0
  2  3  2  0  0  0
  2 25  1  0  0  0
  3  4  1  0  0  0
  4  5  2  0  0  0
  4 10  1  0  0  0
  5  6  1  0  0  0
  5  8  1  0  0  0
  6  7  1  0  0  0
  7 26  1  0  0  0
  7 27  1  0  0  0
  8  9  2  0  0  0
  8 11  1  0  0  0
  9 10  1  0  0  0
  9 28  1  0  0  0
 11 12  1  0  0  0
 11 29  1  0  0  0
 11 30  1  0  0  0
 12 13  1  0  0  0
 12 31  1  0  0  0
 13 14  1  0  0  0
 13 18  2  0  0  0
 14 15  2  0  0  0
 14 32  1  0  0  0
 15 16  1  0  0  0
 15 33  1  0  0  0
 16 17  2  0  0  0
 16 34  1  0  0  0
 17 18  1  0  0  0
 17 35  1  0  0  0
 18 19  1  0  0  0
 19 20  1  0  0  0
 19 24  2  0  0  0
 20 21  2  0  0  0
 20 36  1  0  0  0
 21 22  1  0  0  0
 21 37  1  0  0  0
 22 23  2  0  0  0
 22 38  1  0  0  0
 23 24  1  0  0  0
 23 39  1  0  0  0
 24 40  1  0  0  0
 25 41  1  0  0  0
 25 42  1  0  0  0
M  END
>  <Activity>
3.86328

>  <set_rl>
1

>  <Min_dist>
999.9

>  <Avg_dist>
999.9

>  <PC_uM>
7.7

>  <TG_uM>
45.4

>  <RL_uM>
137

$$$$
38-10
 Wcorina  11170919323D 1   1.00000     0.00000              
CORINA evaluation license 3.46 0067  05.08.2008
 43 46  0  0  0  0  0  0  0  0999 V2000
    3.3659   -0.5199    0.0079 N   0  0  0  0  0  0
    3.7008   -1.7594    0.3432 C   0  0  0  0  0  0
    4.8703   -2.0586    0.8839 N   0  0  0  0  0  0
    5.7737   -1.1098    1.1169 C   0  0  0  0  0  0
    5.4579    0.2156    0.7762 C   0  0  0  0  0  0
    4.2070    0.4907    0.2050 C   0  0  0  0  0  0
    3.8570    1.7820   -0.1453 N   0  0  0  0  0  0
    6.6314    1.0099    1.1480 C   0  0  0  0  0  0
    7.5188    0.1448    1.6583 C   0  0  0  0  0  0
    7.0116   -1.1024    1.6389 O   0  0  0  0  0  0
    6.8057    2.4982    0.9882 C   0  0  0  0  0  0
    6.1182    3.1906    2.0809 N   0  0  0  0  0  0
    6.1396    4.5881    2.1469 C   0  0  0  0  0  0
    5.4880    5.2447    3.1826 C   0  0  0  0  0  0
    5.5100    6.6240    3.2473 C   0  0  0  0  0  0
    6.1828    7.3536    2.2780 C   0  0  0  0  0  0
    6.8337    6.6983    1.2428 C   0  0  0  0  0  0
    6.8174    5.3189    1.1799 C   0  0  0  0  0  0
    6.2041    8.7117    2.3424 O   0  0  0  0  0  0
    6.7812    9.3900    1.3162 C   0  0  0  0  0  0
    6.0236    9.7590    0.2137 C   0  0  0  0  0  0
    6.6127   10.4489   -0.8279 C   0  0  0  0  0  0
    7.9560   10.7720   -0.7727 C   0  0  0  0  0  0
    8.7133   10.4052    0.3245 C   0  0  0  0  0  0
    8.1278    9.7201    1.3715 C   0  0  0  0  0  0
    2.7908   -2.7787    0.1189 N   0  0  0  0  0  0
    2.9888    1.9590   -0.5399 H   0  0  0  0  0  0
    4.4798    2.5106    0.0037 H   0  0  0  0  0  0
    8.4976    0.4092    2.0303 H   0  0  0  0  0  0
    7.8673    2.7444    1.0130 H   0  0  0  0  0  0
    6.3819    2.8134    0.0347 H   0  0  0  0  0  0
    5.6481    2.6802    2.7587 H   0  0  0  0  0  0
    4.9639    4.6769    3.9371 H   0  0  0  0  0  0
    5.0030    7.1348    4.0525 H   0  0  0  0  0  0
    7.3569    7.2670    0.4884 H   0  0  0  0  0  0
    7.3281    4.8087    0.3766 H   0  0  0  0  0  0
    4.9744    9.5066    0.1700 H   0  0  0  0  0  0
    6.0236   10.7360   -1.6864 H   0  0  0  0  0  0
    8.4146   11.3115   -1.5882 H   0  0  0  0  0  0
    9.7625   10.6581    0.3648 H   0  0  0  0  0  0
    8.7187    9.4380    2.2304 H   0  0  0  0  0  0
    1.9276   -2.5799   -0.2763 H   0  0  0  0  0  0
    3.0165   -3.6915    0.3570 H   0  0  0  0  0  0
  1  2  1  0  0  0
  1  6  2  0  0  0
  2  3  2  0  0  0
  2 26  1  0  0  0
  3  4  1  0  0  0
  4  5  2  0  0  0
  4 10  1  0  0  0
  5  6  1  0  0  0
  5  8  1  0  0  0
  6  7  1  0  0  0
  7 27  1  0  0  0
  7 28  1  0  0  0
  8  9  2  0  0  0
  8 11  1  0  0  0
  9 10  1  0  0  0
  9 29  1  0  0  0
 11 12  1  0  0  0
 11 30  1  0  0  0
 11 31  1  0  0  0
 12 13  1  0  0  0
 12 32  1  0  0  0
 13 14  1  0  0  0
 13 18  2  0  0  0
 14 15  2  0  0  0
 14 33  1  0  0  0
 15 16  1  0  0  0
 15 34  1  0  0  0
 16 17  2  0  0  0
 16 19  1  0  0  0
 17 18  1  0  0  0
 17 35  1  0  0  0
 18 36  1  0  0  0
 19 20  1  0  0  0
 20 21  1  0  0  0
 20 25  2  0  0  0
 21 22  2  0  0  0
 21 37  1  0  0  0
 22 23  1  0  0  0
 22 38  1  0  0  0
 23 24  2  0  0  0
 23 39  1  0  0  0
 24 25  1  0  0  0
 24 40  1  0  0  0
 25 41  1  0  0  0
 26 42  1  0  0  0
 26 43  1  0  0  0
M  END
>  <Activity>
4.79048

>  <set_rl>
1

>  <Min_dist>
999.9

>  <Avg_dist>
999.9

>  <PC_uM>
8.1

>  <TG_uM>
32.4

>  <RL_uM>
16.2

$$$$
40-4
 Wcorina  11170919323D 1   1.00000     0.00000              
CORINA evaluation license 3.46 0067  05.08.2008
 41 43  0  0  0  0  0  0  0  0999 V2000
    0.3255    1.3623   -0.2365 N   0  0  0  0  0  0
    0.3067    0.0352   -0.2600 C   0  0  0  0  0  0
    1.3687   -0.6842    0.0492 N   0  0  0  0  0  0
    2.5200   -0.0976    0.4028 C   0  0  0  0  0  0
    2.5898    1.2967    0.4425 C   0  0  0  0  0  0
    1.4205    2.0251    0.1012 C   0  0  0  0  0  0
    1.4248    3.4079    0.1216 N   0  0  0  0  0  0
    3.9044    1.7639    0.8440 C   0  0  0  0  0  0
    4.7783    0.8091    1.0939 C   0  0  0  0  0  0
    4.0739   -0.7797    0.8607 S   0  0  0  0  0  0
    6.2019    1.0522    1.5241 C   0  0  0  0  0  0
    6.2683    1.1157    3.0283 C   0  0  0  0  0  0
    6.2132    2.3373    3.6712 C   0  0  0  0  0  0
    6.2738    2.3957    5.0554 C   0  0  0  0  0  0
    6.3896    1.2275    5.7945 C   0  0  0  0  0  0
    6.4446    0.0063    5.1518 C   0  0  0  0  0  0
    6.3788   -0.0525    3.7674 C   0  0  0  0  0  0
    6.4273   -1.2552    3.1349 O   0  0  0  0  0  0
    6.5414   -2.4173    3.9586 C   0  0  0  0  0  0
    6.2200    3.5981    5.6882 O   0  0  0  0  0  0
    6.2876    3.5837    7.1155 C   0  0  0  0  0  0
    4.2439    3.2271    0.9652 C   0  0  0  0  0  0
   -0.8630   -0.6138   -0.6194 N   0  0  0  0  0  0
    2.1298    3.8838    0.5878 H   0  0  0  0  0  0
    0.7230    3.9018   -0.3304 H   0  0  0  0  0  0
    6.8334    0.2389    1.1666 H   0  0  0  0  0  0
    6.5522    1.9954    1.1048 H   0  0  0  0  0  0
    6.1234    3.2468    3.0958 H   0  0  0  0  0  0
    6.4371    1.2730    6.8725 H   0  0  0  0  0  0
    6.5352   -0.9031    5.7272 H   0  0  0  0  0  0
    7.4579   -2.3580    4.5457 H   0  0  0  0  0  0
    5.6836   -2.4733    4.6288 H   0  0  0  0  0  0
    6.5697   -3.3071    3.3297 H   0  0  0  0  0  0
    5.4531    3.0060    7.5130 H   0  0  0  0  0  0
    7.2269    3.1288    7.4302 H   0  0  0  0  0  0
    6.2345    4.6051    7.4921 H   0  0  0  0  0  0
    3.9267    3.5940    1.9414 H   0  0  0  0  0  0
    5.3205    3.3603    0.8592 H   0  0  0  0  0  0
    3.7299    3.7854    0.1828 H   0  0  0  0  0  0
   -1.6524   -0.0990   -0.8492 H   0  0  0  0  0  0
   -0.8928   -1.5831   -0.6414 H   0  0  0  0  0  0
  1  2  1  0  0  0
  1  6  2  0  0  0
  2  3  2  0  0  0
  2 23  1  0  0  0
  3  4  1  0  0  0
  4  5  2  0  0  0
  4 10  1  0  0  0
  5  6  1  0  0  0
  5  8  1  0  0  0
  6  7  1  0  0  0
  7 24  1  0  0  0
  7 25  1  0  0  0
  8  9  2  0  0  0
  8 22  1  0  0  0
  9 10  1  0  0  0
  9 11  1  0  0  0
 11 12  1  0  0  0
 11 26  1  0  0  0
 11 27  1  0  0  0
 12 13  1  0  0  0
 12 17  2  0  0  0
 13 14  2  0  0  0
 13 28  1  0  0  0
 14 15  1  0  0  0
 14 20  1  0  0  0
 15 16  2  0  0  0
 15 29  1  0  0  0
 16 17  1  0  0  0
 16 30  1  0  0  0
 17 18  1  0  0  0
 18 19  1  0  0  0
 19 31  1  0  0  0
 19 32  1  0  0  0
 19 33  1  0  0  0
 20 21  1  0  0  0
 21 34  1  0  0  0
 21 35  1  0  0  0
 21 36  1  0  0  0
 22 37  1  0  0  0
 22 38  1  0  0  0
 22 39  1  0  0  0
 23 40  1  0  0  0
 23 41  1  0  0  0
M  END
>  <Activity>
6.39794

>  <set_rl>
1

>  <Min_dist>
999.9

>  <Avg_dist>
999.9

>  <PC_uM>
14

>  <TG_uM>
0.07

>  <RL_uM>
0.4

$$$$
40-9
 Wcorina  11170919323D 1   1.00000     0.00000              
CORINA evaluation license 3.46 0067  05.08.2008
 41 43  0  0  0  0  0  0  0  0999 V2000
    0.1931    1.3329   -0.6484 N   0  0  0  0  0  0
    0.1991    0.0055   -0.6406 C   0  0  0  0  0  0
    1.2189   -0.6859   -0.1686 N   0  0  0  0  0  0
    2.3001   -0.0691    0.3268 C   0  0  0  0  0  0
    2.3412    1.3269    0.3404 C   0  0  0  0  0  0
    1.2195    2.0244   -0.1786 C   0  0  0  0  0  0
    1.1988    3.4071   -0.1930 N   0  0  0  0  0  0
    3.5793    1.8286    0.9089 C   0  0  0  0  0  0
    4.4249    0.8970    1.3021 C   0  0  0  0  0  0
    3.7856   -0.7101    1.0137 S   0  0  0  0  0  0
    3.8750    3.3005    1.0390 C   0  0  0  0  0  0
    3.2625    3.8310    2.3368 C   0  0  0  0  0  0
    3.5582    5.3030    2.4669 C   0  0  0  0  0  0
    4.6518    5.7259    3.1975 C   0  0  0  0  0  0
    4.9242    7.0804    3.3169 C   0  0  0  0  0  0
    4.0986    8.0107    2.7026 C   0  0  0  0  0  0
    3.0053    7.5879    1.9723 C   0  0  0  0  0  0
    2.7358    6.2327    1.8485 C   0  0  0  0  0  0
    1.6626    5.8162    1.1247 O   0  0  0  0  0  0
    0.8590    6.8284    0.5151 C   0  0  0  0  0  0
    6.0004    7.4967    4.0364 O   0  0  0  0  0  0
    6.2208    8.9063    4.1172 C   0  0  0  0  0  0
   -0.8985   -0.6742   -1.1427 N   0  0  0  0  0  0
    1.8407    3.9073    0.3349 H   0  0  0  0  0  0
    0.5423    3.8768   -0.7309 H   0  0  0  0  0  0
    5.3893    1.0980    1.7449 H   0  0  0  0  0  0
    4.9539    3.4542    1.0571 H   0  0  0  0  0  0
    3.4462    3.8337    0.1904 H   0  0  0  0  0  0
    2.1835    3.6774    2.3188 H   0  0  0  0  0  0
    3.6912    3.2979    3.1854 H   0  0  0  0  0  0
    5.2944    5.0017    3.6760 H   0  0  0  0  0  0
    4.3105    9.0656    2.7959 H   0  0  0  0  0  0
    2.3623    8.3121    1.4944 H   0  0  0  0  0  0
    0.0388    6.3615   -0.0304 H   0  0  0  0  0  0
    0.4554    7.4851    1.2858 H   0  0  0  0  0  0
    1.4696    7.4105   -0.1751 H   0  0  0  0  0  0
    6.3649    9.3096    3.1148 H   0  0  0  0  0  0
    5.3568    9.3832    4.5800 H   0  0  0  0  0  0
    7.1089    9.1013    4.7184 H   0  0  0  0  0  0
   -1.6562   -0.1802   -1.4931 H   0  0  0  0  0  0
   -0.9093   -1.6441   -1.1440 H   0  0  0  0  0  0
  1  2  1  0  0  0
  1  6  2  0  0  0
  2  3  2  0  0  0
  2 23  1  0  0  0
  3  4  1  0  0  0
  4  5  2  0  0  0
  4 10  1  0  0  0
  5  6  1  0  0  0
  5  8  1  0  0  0
  6  7  1  0  0  0
  7 24  1  0  0  0
  7 25  1  0  0  0
  8  9  2  0  0  0
  8 11  1  0  0  0
  9 10  1  0  0  0
  9 26  1  0  0  0
 11 12  1  0  0  0
 11 27  1  0  0  0
 11 28  1  0  0  0
 12 13  1  0  0  0
 12 29  1  0  0  0
 12 30  1  0  0  0
 13 14  1  0  0  0
 13 18  2  0  0  0
 14 15  2  0  0  0
 14 31  1  0  0  0
 15 16  1  0  0  0
 15 21  1  0  0  0
 16 17  2  0  0  0
 16 32  1  0  0  0
 17 18  1  0  0  0
 17 33  1  0  0  0
 18 19  1  0  0  0
 19 20  1  0  0  0
 20 34  1  0  0  0
 20 35  1  0  0  0
 20 36  1  0  0  0
 21 22  1  0  0  0
 22 37  1  0  0  0
 22 38  1  0  0  0
 22 39  1  0  0  0
 23 40  1  0  0  0
 23 41  1  0  0  0
M  END
>  <Activity>
5.50864

>  <set_rl>
1

>  <Min_dist>
999.9

>  <Avg_dist>
999.9

>  <PC_uM>
28

>  <TG_uM>
5.8

>  <RL_uM>
3.1

$$$$
40-TABLE2-1
 Wcorina  11170919323D 1   1.00000     0.00000              
CORINA evaluation license 3.46 0067  05.08.2008
 30 32  0  0  0  0  0  0  0  0999 V2000
    0.0301    0.8086    0.1300 N   0  0  0  0  0  0
    0.3232   -0.4701    0.3323 C   0  0  0  0  0  0
    1.5498   -0.9370    0.1946 N   0  0  0  0  0  0
    2.5597   -0.1311   -0.1586 C   0  0  0  0  0  0
    2.3020    1.2247   -0.3831 C   0  0  0  0  0  0
    0.9647    1.6773   -0.2216 C   0  0  0  0  0  0
    0.6444    3.0060   -0.4293 N   0  0  0  0  0  0
    3.4971    1.9525   -0.7556 C   0  0  0  0  0  0
    4.6027    1.2108   -0.8150 C   0  0  0  0  0  0
    4.2666   -0.4629   -0.4143 S   0  0  0  0  0  0
    5.9391    1.7314   -1.1729 C   0  0  0  0  0  0
    6.4254    2.8904   -0.5659 C   0  0  0  0  0  0
    7.6735    3.3710   -0.9044 C   0  0  0  0  0  0
    8.4426    2.7067   -1.8434 C   0  0  0  0  0  0
    7.9664    1.5573   -2.4488 C   0  0  0  0  0  0
    6.7225    1.0629   -2.1151 C   0  0  0  0  0  0
    3.4911    3.4300   -1.0526 C   0  0  0  0  0  0
   -0.6890   -1.3408    0.6995 N   0  0  0  0  0  0
   -0.2800    3.2666   -0.5652 H   0  0  0  0  0  0
    1.3441    3.6778   -0.4392 H   0  0  0  0  0  0
    5.8259    3.4100    0.1669 H   0  0  0  0  0  0
    8.0508    4.2678   -0.4358 H   0  0  0  0  0  0
    9.4188    3.0873   -2.1051 H   0  0  0  0  0  0
    8.5716    1.0438   -3.1812 H   0  0  0  0  0  0
    6.3539    0.1630   -2.5848 H   0  0  0  0  0  0
    3.5661    3.9885   -0.1196 H   0  0  0  0  0  0
    4.3390    3.6754   -1.6921 H   0  0  0  0  0  0
    2.5640    3.6946   -1.5610 H   0  0  0  0  0  0
   -1.5959   -1.0132    0.8051 H   0  0  0  0  0  0
   -0.4912   -2.2782    0.8510 H   0  0  0  0  0  0
  1  2  1  0  0  0
  1  6  2  0  0  0
  2  3  2  0  0  0
  2 18  1  0  0  0
  3  4  1  0  0  0
  4  5  2  0  0  0
  4 10  1  0  0  0
  5  6  1  0  0  0
  5  8  1  0  0  0
  6  7  1  0  0  0
  7 19  1  0  0  0
  7 20  1  0  0  0
  8  9  2  0  0  0
  8 17  1  0  0  0
  9 10  1  0  0  0
  9 11  1  0  0  0
 11 12  1  0  0  0
 11 16  2  0  0  0
 12 13  2  0  0  0
 12 21  1  0  0  0
 13 14  1  0  0  0
 13 22  1  0  0  0
 14 15  2  0  0  0
 14 23  1  0  0  0
 15 16  1  0  0  0
 15 24  1  0  0  0
 16 25  1  0  0  0
 17 26  1  0  0  0
 17 27  1  0  0  0
 17 28  1  0  0  0
 18 29  1  0  0  0
 18 30  1  0  0  0
M  END
>  <Activity>
4.24413

>  <set_rl>
1

>  <Min_dist>
999.9

>  <Avg_dist>
999.9

>  <PC_uM>
26

>  <TG_uM>
3.9

>  <RL_uM>
57

$$$$
16-10
 Wcorina  11170919323D 1   1.00000     0.00000              
CORINA evaluation license 3.46 0067  05.08.2008
 44 46  0  0  0  0  0  0  0  0999 V2000
   -0.6721    2.2348    0.7124 N   0  0  0  0  0  0
   -0.9283    0.9380    0.8329 C   0  0  0  0  0  0
    0.0308    0.0320    0.8195 N   0  0  0  0  0  0
    1.3148    0.3889    0.6823 C   0  0  0  0  0  0
    1.6352    1.7421    0.5520 C   0  0  0  0  0  0
    0.5677    2.6771    0.5724 C   0  0  0  0  0  0
    0.8193    4.0313    0.4484 N   0  0  0  0  0  0
    3.0652    1.9511    0.4140 C   0  0  0  0  0  0
    3.7899    0.8501    0.4358 C   0  0  0  0  0  0
    2.7847   -0.5735    0.6300 S   0  0  0  0  0  0
    3.6741    3.3207    0.2573 C   0  0  0  0  0  0
    3.6454    4.0180    1.5454 N   0  0  0  0  0  0
    4.1595    5.3156    1.6502 C   0  0  0  0  0  0
    4.1322    5.9765    2.8716 C   0  0  0  0  0  0
    4.6413    7.2618    2.9759 C   0  0  0  0  0  0
    5.1790    7.8887    1.8581 C   0  0  0  0  0  0
    5.2059    7.2267    0.6368 C   0  0  0  0  0  0
    4.7016    5.9392    0.5350 C   0  0  0  0  0  0
    5.7315    7.8396   -0.4576 O   0  0  0  0  0  0
    5.7266    7.1002   -1.6804 C   0  0  0  0  0  0
    5.6789    9.1514    1.9596 O   0  0  0  0  0  0
    4.7730   10.2293    1.7160 C   0  0  0  0  0  0
    4.6142    7.9093    4.1717 O   0  0  0  0  0  0
    5.7861    7.8199    4.9846 C   0  0  0  0  0  0
    3.3999    5.1234    4.3921 Br  0  0  0  0  0  0
   -2.2420    0.5233    0.9775 N   0  0  0  0  0  0
    0.0823    4.6547    0.3528 H   0  0  0  0  0  0
    1.7327    4.3577    0.4570 H   0  0  0  0  0  0
    4.8658    0.8277    0.3450 H   0  0  0  0  0  0
    4.7059    3.2231   -0.0801 H   0  0  0  0  0  0
    3.1039    3.8899   -0.4768 H   0  0  0  0  0  0
    3.2701    3.5805    2.3255 H   0  0  0  0  0  0
    4.7265    5.4230   -0.4133 H   0  0  0  0  0  0
    6.1729    7.7029   -2.4713 H   0  0  0  0  0  0
    6.3026    6.1836   -1.5531 H   0  0  0  0  0  0
    4.7004    6.8499   -1.9495 H   0  0  0  0  0  0
    4.3221   10.1094    0.7309 H   0  0  0  0  0  0
    3.9917   10.2262    2.4760 H   0  0  0  0  0  0
    5.3142   11.1747    1.7551 H   0  0  0  0  0  0
    5.9505    6.7815    5.2721 H   0  0  0  0  0  0
    6.6468    8.1819    4.4222 H   0  0  0  0  0  0
    5.6548    8.4283    5.8794 H   0  0  0  0  0  0
   -2.9584    1.1772    0.9896 H   0  0  0  0  0  0
   -2.4456   -0.4208    1.0667 H   0  0  0  0  0  0
  1  2  1  0  0  0
  1  6  2  0  0  0
  2  3  2  0  0  0
  2 26  1  0  0  0
  3  4  1  0  0  0
  4  5  2  0  0  0
  4 10  1  0  0  0
  5  6  1  0  0  0
  5  8  1  0  0  0
  6  7  1  0  0  0
  7 27  1  0  0  0
  7 28  1  0  0  0
  8  9  2  0  0  0
  8 11  1  0  0  0
  9 10  1  0  0  0
  9 29  1  0  0  0
 11 12  1  0  0  0
 11 30  1  0  0  0
 11 31  1  0  0  0
 12 13  1  0  0  0
 12 32  1  0  0  0
 13 14  1  0  0  0
 13 18  2  0  0  0
 14 15  2  0  0  0
 14 25  1  0  0  0
 15 16  1  0  0  0
 15 23  1  0  0  0
 16 17  2  0  0  0
 16 21  1  0  0  0
 17 18  1  0  0  0
 17 19  1  0  0  0
 18 33  1  0  0  0
 19 20  1  0  0  0
 20 34  1  0  0  0
 20 35  1  0  0  0
 20 36  1  0  0  0
 21 22  1  0  0  0
 22 37  1  0  0  0
 22 38  1  0  0  0
 22 39  1  0  0  0
 23 24  1  0  0  0
 24 40  1  0  0  0
 24 41  1  0  0  0
 24 42  1  0  0  0
 26 43  1  0  0  0
 26 44  1  0  0  0
M  END
>  <Activity>
4.36653

>  <set_rl>
1

>  <Min_dist>
999.9

>  <Avg_dist>
999.9

>  <PC_uM>
200

>  <TG_uM>
25

>  <RL_uM>
43

$$$$
36-6A
 Wcorina  11170919323D 1   1.00000     0.00000              
CORINA evaluation license 3.46 0067  05.08.2008
 44 46  0  0  0  0  0  0  0  0999 V2000
   -0.1206    1.3064   -0.2911 N   0  0  0  0  0  0
   -0.0825   -0.0203   -0.3082 C   0  0  0  0  0  0
    1.0083   -0.6921    0.0073 N   0  0  0  0  0  0
    2.1325   -0.0551    0.3611 C   0  0  0  0  0  0
    2.1424    1.3410    0.3942 C   0  0  0  0  0  0
    0.9441    2.0170    0.0463 C   0  0  0  0  0  0
    0.8893    3.3990    0.0601 N   0  0  0  0  0  0
    3.4349    1.8662    0.7966 C   0  0  0  0  0  0
    4.3487    0.9500    1.0532 C   0  0  0  0  0  0
    3.7128   -0.6683    0.8259 S   0  0  0  0  0  0
    6.1186    1.3330    1.5976 Br  0  0  0  0  0  0
    3.7112    3.3432    0.9116 C   0  0  0  0  0  0
    3.2446    3.8274    2.2132 N   0  0  0  0  0  0
    3.3939    5.1765    2.5521 C   0  0  0  0  0  0
    2.9516    5.6350    3.7856 C   0  0  0  0  0  0
    3.0991    6.9716    4.1222 C   0  0  0  0  0  0
    3.6899    7.8527    3.2245 C   0  0  0  0  0  0
    4.1324    7.3930    1.9900 C   0  0  0  0  0  0
    3.9893    6.0550    1.6571 C   0  0  0  0  0  0
    4.7107    8.2545    1.1109 O   0  0  0  0  0  0
    5.1420    7.7133   -0.1393 C   0  0  0  0  0  0
    3.8348    9.1661    3.5543 O   0  0  0  0  0  0
    5.0457    9.5393    4.2151 C   0  0  0  0  0  0
    2.6655    7.4207    5.3304 O   0  0  0  0  0  0
    2.0675    6.4599    6.2030 C   0  0  0  0  0  0
   -1.2225   -0.7206   -0.6677 N   0  0  0  0  0  0
    1.5785    3.9073    0.5158 H   0  0  0  0  0  0
    0.1617    3.8600   -0.3860 H   0  0  0  0  0  0
    4.7828    3.5205    0.8208 H   0  0  0  0  0  0
    3.1865    3.8739    0.1171 H   0  0  0  0  0  0
    2.8322    3.2126    2.8399 H   0  0  0  0  0  0
    2.4921    4.9502    4.4830 H   0  0  0  0  0  0
    4.3374    5.6967    0.6996 H   0  0  0  0  0  0
    5.8836    6.9345    0.0384 H   0  0  0  0  0  0
    4.2873    7.2880   -0.6653 H   0  0  0  0  0  0
    5.5841    8.5047   -0.7447 H   0  0  0  0  0  0
    5.0325   10.6097    4.4203 H   0  0  0  0  0  0
    5.1317    8.9906    5.1530 H   0  0  0  0  0  0
    5.8963    9.3022    3.5761 H   0  0  0  0  0  0
    1.1919    6.0260    5.7203 H   0  0  0  0  0  0
    2.7879    5.6725    6.4246 H   0  0  0  0  0  0
    1.7668    6.9485    7.1298 H   0  0  0  0  0  0
   -2.0325   -0.2412   -0.9020 H   0  0  0  0  0  0
   -1.2107   -1.6904   -0.6851 H   0  0  0  0  0  0
  1  2  1  0  0  0
  1  6  2  0  0  0
  2  3  2  0  0  0
  2 26  1  0  0  0
  3  4  1  0  0  0
  4  5  2  0  0  0
  4 10  1  0  0  0
  5  6  1  0  0  0
  5  8  1  0  0  0
  6  7  1  0  0  0
  7 27  1  0  0  0
  7 28  1  0  0  0
  8  9  2  0  0  0
  8 12  1  0  0  0
  9 10  1  0  0  0
  9 11  1  0  0  0
 12 13  1  0  0  0
 12 29  1  0  0  0
 12 30  1  0  0  0
 13 14  1  0  0  0
 13 31  1  0  0  0
 14 15  1  0  0  0
 14 19  2  0  0  0
 15 16  2  0  0  0
 15 32  1  0  0  0
 16 17  1  0  0  0
 16 24  1  0  0  0
 17 18  2  0  0  0
 17 22  1  0  0  0
 18 19  1  0  0  0
 18 20  1  0  0  0
 19 33  1  0  0  0
 20 21  1  0  0  0
 21 34  1  0  0  0
 21 35  1  0  0  0
 21 36  1  0  0  0
 22 23  1  0  0  0
 23 37  1  0  0  0
 23 38  1  0  0  0
 23 39  1  0  0  0
 24 25  1  0  0  0
 25 40  1  0  0  0
 25 41  1  0  0  0
 25 42  1  0  0  0
 26 43  1  0  0  0
 26 44  1  0  0  0
M  END
>  <Activity>
4.76955

>  <set_rl>
1

>  <Min_dist>
999.9

>  <Avg_dist>
999.9

>  <PC_uM>
13

>  <TG_uM>
34

>  <RL_uM>
17

$$$$
41-4D
 Wcorina  11170919323D 1   1.00000     0.00000              
CORINA evaluation license 3.46 0067  05.08.2008
 43 47  0  0  0  0  0  0  0  0999 V2000
   -0.0159    1.3228    0.0093 N   0  0  0  0  0  0
    0.0021   -0.0041    0.0020 C   0  0  0  0  0  0
    1.1268   -0.7001   -0.0125 N   0  0  0  0  0  0
    2.3066   -0.0847   -0.0204 C   0  0  0  0  0  0
    2.3308    1.3196   -0.0131 C   0  0  0  0  0  0
    1.1160    2.0201    0.0023 C   0  0  0  0  0  0
    1.0960    3.4029    0.0094 N   0  0  0  0  0  0
    3.7480    1.6907   -0.0242 C   0  0  0  0  0  0
    4.4333    0.5390   -0.0367 C   0  0  0  0  0  0
    3.5826   -0.5047   -0.0344 O   0  0  0  0  0  0
    4.3195    3.0852   -0.0227 C   0  0  0  0  0  0
    4.2950    3.6215    1.3404 N   0  0  0  0  0  0
    4.7767    4.9067    1.5933 C   0  0  0  0  0  0
    4.7539    5.4166    2.8871 C   0  0  0  0  0  0
    5.2297    6.6846    3.1355 C   0  0  0  0  0  0
    5.7357    7.4632    2.0967 C   0  0  0  0  0  0
    5.7571    6.9474    0.7989 C   0  0  0  0  0  0
    5.2850    5.6764    0.5534 C   0  0  0  0  0  0
    6.1769    8.7745    2.6326 C   0  0  0  0  0  0
    5.9470    8.8159    4.0054 C   0  0  0  0  0  0
    6.2770    9.9399    4.7320 C   0  0  0  0  0  0
    6.8392   11.0343    4.0982 C   0  0  0  0  0  0
    7.0710   11.0029    2.7351 C   0  0  0  0  0  0
    6.7447    9.8819    2.0000 C   0  0  0  0  0  0
    5.3341    7.4958    4.4040 C   0  0  0  0  0  0
   -1.2029   -0.6862    0.0103 N   0  0  0  0  0  0
    0.2491    3.8756    0.0197 H   0  0  0  0  0  0
    1.9289    3.9000    0.0041 H   0  0  0  0  0  0
    5.5104    0.4596   -0.0474 H   0  0  0  0  0  0
    5.3476    3.0569   -0.3837 H   0  0  0  0  0  0
    3.7228    3.7230   -0.6749 H   0  0  0  0  0  0
    3.9441    3.0833    2.0671 H   0  0  0  0  0  0
    4.3626    4.8183    3.6966 H   0  0  0  0  0  0
    6.1472    7.5441   -0.0124 H   0  0  0  0  0  0
    5.3067    5.2784   -0.4504 H   0  0  0  0  0  0
    6.0965    9.9666    5.7965 H   0  0  0  0  0  0
    7.0969   11.9143    4.6689 H   0  0  0  0  0  0
    7.5095   11.8591    2.2442 H   0  0  0  0  0  0
    6.9274    9.8616    0.9358 H   0  0  0  0  0  0
    4.3436    7.6552    4.8300 H   0  0  0  0  0  0
    5.9752    6.9864    5.1234 H   0  0  0  0  0  0
   -2.0387   -0.1941    0.0213 H   0  0  0  0  0  0
   -1.2111   -1.6562    0.0052 H   0  0  0  0  0  0
  1  2  1  0  0  0
  1  6  2  0  0  0
  2  3  2  0  0  0
  2 26  1  0  0  0
  3  4  1  0  0  0
  4  5  2  0  0  0
  4 10  1  0  0  0
  5  6  1  0  0  0
  5  8  1  0  0  0
  6  7  1  0  0  0
  7 27  1  0  0  0
  7 28  1  0  0  0
  8  9  2  0  0  0
  8 11  1  0  0  0
  9 10  1  0  0  0
  9 29  1  0  0  0
 11 12  1  0  0  0
 11 30  1  0  0  0
 11 31  1  0  0  0
 12 13  1  0  0  0
 12 32  1  0  0  0
 13 14  1  0  0  0
 13 18  2  0  0  0
 14 15  2  0  0  0
 14 33  1  0  0  0
 15 16  1  0  0  0
 15 25  1  0  0  0
 16 17  2  0  0  0
 16 19  1  0  0  0
 17 18  1  0  0  0
 17 34  1  0  0  0
 18 35  1  0  0  0
 19 20  1  0  0  0
 19 24  2  0  0  0
 20 21  2  0  0  0
 20 25  1  0  0  0
 21 22  1  0  0  0
 21 36  1  0  0  0
 22 23  2  0  0  0
 22 37  1  0  0  0
 23 24  1  0  0  0
 23 38  1  0  0  0
 24 39  1  0  0  0
 25 40  1  0  0  0
 25 41  1  0  0  0
 26 42  1  0  0  0
 26 43  1  0  0  0
M  END
>  <Activity>
3.30103

>  <set_rl>
1

>  <Min_dist>
999.9

>  <Avg_dist>
999.9

>  <PC_uM>
36.2

>  <TG_uM>
27.7

>  <RL_uM>
>10

$$$$
41-7B
 Wcorina  11170919323D 1   1.00000     0.00000              
CORINA evaluation license 3.46 0067  05.08.2008
 41 44  0  0  0  0  0  0  0  0999 V2000
   -0.0159    1.3228    0.0093 N   0  0  0  0  0  0
    0.0021   -0.0041    0.0020 C   0  0  0  0  0  0
    1.1268   -0.7001   -0.0125 N   0  0  0  0  0  0
    2.3066   -0.0847   -0.0204 C   0  0  0  0  0  0
    2.3308    1.3196   -0.0131 C   0  0  0  0  0  0
    1.1160    2.0201    0.0023 C   0  0  0  0  0  0
    1.0960    3.4029    0.0094 N   0  0  0  0  0  0
    3.7480    1.6907   -0.0242 C   0  0  0  0  0  0
    4.4333    0.5390   -0.0367 C   0  0  0  0  0  0
    3.5826   -0.5047   -0.0344 O   0  0  0  0  0  0
    4.3195    3.0852   -0.0227 C   0  0  0  0  0  0
    4.5643    3.6365    1.6880 S   0  0  0  0  0  0
    5.2264    5.2575    1.4912 C   0  0  0  0  0  0
    5.5495    6.0159    2.6077 C   0  0  0  0  0  0
    6.0721    7.2957    2.4468 C   0  0  0  0  0  0
    6.2682    7.8088    1.1655 C   0  0  0  0  0  0
    5.9445    7.0485    0.0595 C   0  0  0  0  0  0
    5.4308    5.7754    0.2173 C   0  0  0  0  0  0
    6.4194    8.1124    3.6362 C   0  0  0  0  0  0
    6.9427    9.3937    3.4761 C   0  0  0  0  0  0
    7.2639   10.1489    4.5858 C   0  0  0  0  0  0
    7.0673    9.6358    5.8552 C   0  0  0  0  0  0
    6.5485    8.3642    6.0200 C   0  0  0  0  0  0
    6.2180    7.6027    4.9173 C   0  0  0  0  0  0
   -1.2029   -0.6862    0.0103 N   0  0  0  0  0  0
    0.2491    3.8756    0.0197 H   0  0  0  0  0  0
    1.9289    3.9000    0.0041 H   0  0  0  0  0  0
    5.5104    0.4596   -0.0474 H   0  0  0  0  0  0
    5.2760    3.0864   -0.5452 H   0  0  0  0  0  0
    3.6291    3.7613   -0.5271 H   0  0  0  0  0  0
    5.3955    5.6143    3.5984 H   0  0  0  0  0  0
    6.6734    8.8018    1.0379 H   0  0  0  0  0  0
    6.0970    7.4484   -0.9321 H   0  0  0  0  0  0
    5.1833    5.1829   -0.6512 H   0  0  0  0  0  0
    7.0970    9.7952    2.4854 H   0  0  0  0  0  0
    7.6700   11.1421    4.4628 H   0  0  0  0  0  0
    7.3200   10.2301    6.7208 H   0  0  0  0  0  0
    6.3973    7.9683    7.0134 H   0  0  0  0  0  0
    5.8085    6.6118    5.0471 H   0  0  0  0  0  0
   -2.0387   -0.1941    0.0213 H   0  0  0  0  0  0
   -1.2111   -1.6562    0.0052 H   0  0  0  0  0  0
  1  2  1  0  0  0
  1  6  2  0  0  0
  2  3  2  0  0  0
  2 25  1  0  0  0
  3  4  1  0  0  0
  4  5  2  0  0  0
  4 10  1  0  0  0
  5  6  1  0  0  0
  5  8  1  0  0  0
  6  7  1  0  0  0
  7 26  1  0  0  0
  7 27  1  0  0  0
  8  9  2  0  0  0
  8 11  1  0  0  0
  9 10  1  0  0  0
  9 28  1  0  0  0
 11 12  1  0  0  0
 11 29  1  0  0  0
 11 30  1  0  0  0
 12 13  1  0  0  0
 13 14  1  0  0  0
 13 18  2  0  0  0
 14 15  2  0  0  0
 14 31  1  0  0  0
 15 16  1  0  0  0
 15 19  1  0  0  0
 16 17  2  0  0  0
 16 32  1  0  0  0
 17 18  1  0  0  0
 17 33  1  0  0  0
 18 34  1  0  0  0
 19 20  1  0  0  0
 19 24  2  0  0  0
 20 21  2  0  0  0
 20 35  1  0  0  0
 21 22  1  0  0  0
 21 36  1  0  0  0
 22 23  2  0  0  0
 22 37  1  0  0  0
 23 24  1  0  0  0
 23 38  1  0  0  0
 24 39  1  0  0  0
 25 40  1  0  0  0
 25 41  1  0  0  0
M  END
>  <Activity>
4.50864

>  <set_rl>
1

>  <Min_dist>
999.9

>  <Avg_dist>
999.9

>  <PC_uM>
22

>  <TG_uM>
23

>  <RL_uM>
31

$$$$
41-7C
 Wcorina  11170919323D 1   1.00000     0.00000              
CORINA evaluation license 3.46 0067  05.08.2008
 41 44  0  0  0  0  0  0  0  0999 V2000
   -0.0159    1.3228    0.0093 N   0  0  0  0  0  0
    0.0021   -0.0041    0.0020 C   0  0  0  0  0  0
    1.1268   -0.7001   -0.0125 N   0  0  0  0  0  0
    2.3066   -0.0847   -0.0204 C   0  0  0  0  0  0
    2.3308    1.3196   -0.0131 C   0  0  0  0  0  0
    1.1160    2.0201    0.0023 C   0  0  0  0  0  0
    1.0960    3.4029    0.0094 N   0  0  0  0  0  0
    3.7480    1.6907   -0.0242 C   0  0  0  0  0  0
    4.4333    0.5390   -0.0367 C   0  0  0  0  0  0
    3.5826   -0.5047   -0.0344 O   0  0  0  0  0  0
    4.3195    3.0852   -0.0227 C   0  0  0  0  0  0
    4.5643    3.6365    1.6880 S   0  0  0  0  0  0
    5.2264    5.2575    1.4912 C   0  0  0  0  0  0
    5.5497    6.0164    2.6110 C   0  0  0  0  0  0
    6.0677    7.2845    2.4589 C   0  0  0  0  0  0
    6.2680    7.8063    1.1816 C   0  0  0  0  0  0
    5.9437    7.0439    0.0602 C   0  0  0  0  0  0
    5.4304    5.7743    0.2161 C   0  0  0  0  0  0
    6.8249    9.1711    1.0159 C   0  0  0  0  0  0
    7.0258    9.6943   -0.2602 C   0  0  0  0  0  0
    7.5439   10.9649   -0.4084 C   0  0  0  0  0  0
    7.8636   11.7187    0.7066 C   0  0  0  0  0  0
    7.6663   11.2044    1.9754 C   0  0  0  0  0  0
    7.1439    9.9371    2.1356 C   0  0  0  0  0  0
   -1.2029   -0.6862    0.0103 N   0  0  0  0  0  0
    0.2491    3.8756    0.0197 H   0  0  0  0  0  0
    1.9289    3.9000    0.0041 H   0  0  0  0  0  0
    5.5104    0.4596   -0.0474 H   0  0  0  0  0  0
    5.2760    3.0864   -0.5452 H   0  0  0  0  0  0
    3.6291    3.7613   -0.5271 H   0  0  0  0  0  0
    5.3945    5.6119    3.6003 H   0  0  0  0  0  0
    6.3180    7.8738    3.3287 H   0  0  0  0  0  0
    6.0981    7.4464   -0.9300 H   0  0  0  0  0  0
    5.1829    5.1818   -0.6523 H   0  0  0  0  0  0
    6.7769    9.1066   -1.1313 H   0  0  0  0  0  0
    7.7003   11.3713   -1.3967 H   0  0  0  0  0  0
    8.2690   12.7124    0.5859 H   0  0  0  0  0  0
    7.9176   11.7974    2.8424 H   0  0  0  0  0  0
    6.9864    9.5381    3.1268 H   0  0  0  0  0  0
   -2.0387   -0.1941    0.0213 H   0  0  0  0  0  0
   -1.2111   -1.6562    0.0052 H   0  0  0  0  0  0
  1  2  1  0  0  0
  1  6  2  0  0  0
  2  3  2  0  0  0
  2 25  1  0  0  0
  3  4  1  0  0  0
  4  5  2  0  0  0
  4 10  1  0  0  0
  5  6  1  0  0  0
  5  8  1  0  0  0
  6  7  1  0  0  0
  7 26  1  0  0  0
  7 27  1  0  0  0
  8  9  2  0  0  0
  8 11  1  0  0  0
  9 10  1  0  0  0
  9 28  1  0  0  0
 11 12  1  0  0  0
 11 29  1  0  0  0
 11 30  1  0  0  0
 12 13  1  0  0  0
 13 14  1  0  0  0
 13 18  2  0  0  0
 14 15  2  0  0  0
 14 31  1  0  0  0
 15 16  1  0  0  0
 15 32  1  0  0  0
 16 17  2  0  0  0
 16 19  1  0  0  0
 17 18  1  0  0  0
 17 33  1  0  0  0
 18 34  1  0  0  0
 19 20  1  0  0  0
 19 24  2  0  0  0
 20 21  2  0  0  0
 20 35  1  0  0  0
 21 22  1  0  0  0
 21 36  1  0  0  0
 22 23  2  0  0  0
 22 37  1  0  0  0
 23 24  1  0  0  0
 23 38  1  0  0  0
 24 39  1  0  0  0
 25 40  1  0  0  0
 25 41  1  0  0  0
M  END
>  <Activity>
3.45469

>  <set_rl>
1

>  <Min_dist>
999.9

>  <Avg_dist>
999.9

>  <PC_uM>
41

>  <TG_uM>
79

>  <RL_uM>
351

$$$$
40-TABLE2-3
 Wcorina  11170919323D 1   1.00000     0.00000              
CORINA evaluation license 3.46 0067  05.08.2008
 33 35  0  0  0  0  0  0  0  0999 V2000
    0.3074    1.3604   -0.2398 N   0  0  0  0  0  0
    0.2909    0.0333   -0.2629 C   0  0  0  0  0  0
    1.3541   -0.6842    0.0465 N   0  0  0  0  0  0
    2.5044   -0.0955    0.4001 C   0  0  0  0  0  0
    2.5717    1.2990    0.4394 C   0  0  0  0  0  0
    1.4012    2.0252    0.0977 C   0  0  0  0  0  0
    1.4032    3.4080    0.1177 N   0  0  0  0  0  0
    3.8855    1.7685    0.8408 C   0  0  0  0  0  0
    4.7610    0.8154    1.0911 C   0  0  0  0  0  0
    4.0594   -0.7747    0.8584 S   0  0  0  0  0  0
    6.1842    1.0610    1.5214 C   0  0  0  0  0  0
    6.2503    1.1251    3.0256 C   0  0  0  0  0  0
    6.4718   -0.0266    3.7574 C   0  0  0  0  0  0
    6.5323    0.0322    5.1371 C   0  0  0  0  0  0
    6.3719    1.2427    5.7851 C   0  0  0  0  0  0
    6.1513    2.3945    5.0532 C   0  0  0  0  0  0
    6.0950    2.3364    3.6732 C   0  0  0  0  0  0
    4.2224    3.2324    0.9617 C   0  0  0  0  0  0
   -0.8776   -0.6179   -0.6223 N   0  0  0  0  0  0
    2.1073    3.8853    0.5838 H   0  0  0  0  0  0
    0.7004    3.9005   -0.3344 H   0  0  0  0  0  0
    6.8171    0.2487    1.1642 H   0  0  0  0  0  0
    6.5329    2.0047    1.1018 H   0  0  0  0  0  0
    6.5971   -0.9723    3.2511 H   0  0  0  0  0  0
    6.7047   -0.8677    5.7089 H   0  0  0  0  0  0
    6.4185    1.2885    6.8631 H   0  0  0  0  0  0
    6.0255    3.3402    5.5595 H   0  0  0  0  0  0
    5.9263    3.2369    3.1013 H   0  0  0  0  0  0
    3.9045    3.5990    1.9377 H   0  0  0  0  0  0
    5.2988    3.3674    0.8558 H   0  0  0  0  0  0
    3.7076    3.7895    0.1790 H   0  0  0  0  0  0
   -1.6679   -0.1045   -0.8523 H   0  0  0  0  0  0
   -0.9057   -1.5872   -0.6440 H   0  0  0  0  0  0
  1  2  1  0  0  0
  1  6  2  0  0  0
  2  3  2  0  0  0
  2 19  1  0  0  0
  3  4  1  0  0  0
  4  5  2  0  0  0
  4 10  1  0  0  0
  5  6  1  0  0  0
  5  8  1  0  0  0
  6  7  1  0  0  0
  7 20  1  0  0  0
  7 21  1  0  0  0
  8  9  2  0  0  0
  8 18  1  0  0  0
  9 10  1  0  0  0
  9 11  1  0  0  0
 11 12  1  0  0  0
 11 22  1  0  0  0
 11 23  1  0  0  0
 12 13  1  0  0  0
 12 17  2  0  0  0
 13 14  2  0  0  0
 13 24  1  0  0  0
 14 15  1  0  0  0
 14 25  1  0  0  0
 15 16  2  0  0  0
 15 26  1  0  0  0
 16 17  1  0  0  0
 16 27  1  0  0  0
 17 28  1  0  0  0
 18 29  1  0  0  0
 18 30  1  0  0  0
 18 31  1  0  0  0
 19 32  1  0  0  0
 19 33  1  0  0  0
M  END
>  <Activity>
4.85387

>  <set_rl>
1

>  <Min_dist>
999.9

>  <Avg_dist>
999.9

>  <PC_uM>
35

>  <TG_uM>
6.2

>  <RL_uM>
14

$$$$
16-12
 Wcorina  11170919323D 1   1.00000     0.00000              
CORINA evaluation license 3.46 0067  05.08.2008
 45 47  0  0  0  0  0  0  0  0999 V2000
    0.5519    1.3785   -0.8941 N   0  0  0  0  0  0
    0.5380    0.0512   -0.9010 C   0  0  0  0  0  0
    1.4599   -0.6605   -0.2808 N   0  0  0  0  0  0
    2.4569   -0.0654    0.3874 C   0  0  0  0  0  0
    2.5149    1.3296    0.4237 C   0  0  0  0  0  0
    1.5000    2.0494   -0.2589 C   0  0  0  0  0  0
    1.5011    3.4324   -0.2602 N   0  0  0  0  0  0
    3.6535    1.8065    1.1877 C   0  0  0  0  0  0
    4.4127    0.8581    1.6995 C   0  0  0  0  0  0
    3.8050   -0.7360    1.2942 S   0  0  0  0  0  0
    3.9453    3.2723    1.3804 C   0  0  0  0  0  0
    3.0630    3.8249    2.5016 C   0  0  0  0  0  0
    3.3548    5.2908    2.6943 C   0  0  0  0  0  0
    2.5123    6.2396    2.1451 C   0  0  0  0  0  0
    2.7771    7.5890    2.3201 C   0  0  0  0  0  0
    3.8913    7.9882    3.0493 C   0  0  0  0  0  0
    4.7356    7.0322    3.6002 C   0  0  0  0  0  0
    4.4612    5.6834    3.4248 C   0  0  0  0  0  0
    5.6052    4.3808    4.1799 Br  0  0  0  0  0  0
    5.8270    7.4179    4.3144 O   0  0  0  0  0  0
    7.0217    7.6883    3.5784 C   0  0  0  0  0  0
    4.1546    9.3121    3.2226 O   0  0  0  0  0  0
    3.6422    9.9258    4.4070 C   0  0  0  0  0  0
    1.9481    8.5214    1.7786 O   0  0  0  0  0  0
    0.8228    8.0391    1.0415 C   0  0  0  0  0  0
   -0.4750   -0.6065   -1.5792 N   0  0  0  0  0  0
    2.1132    3.9173    0.3151 H   0  0  0  0  0  0
    0.8899    3.9174   -0.8364 H   0  0  0  0  0  0
    5.2970    1.0398    2.2923 H   0  0  0  0  0  0
    4.9944    3.4021    1.6463 H   0  0  0  0  0  0
    3.7359    3.8092    0.4552 H   0  0  0  0  0  0
    2.0139    3.6951    2.2358 H   0  0  0  0  0  0
    3.2724    3.2880    3.4268 H   0  0  0  0  0  0
    1.6468    5.9289    1.5787 H   0  0  0  0  0  0
    6.8628    8.5516    2.9322 H   0  0  0  0  0  0
    7.8359    7.8984    4.2718 H   0  0  0  0  0  0
    7.2775    6.8210    2.9697 H   0  0  0  0  0  0
    3.9970    9.3805    5.2815 H   0  0  0  0  0  0
    3.9860   10.9589    4.4589 H   0  0  0  0  0  0
    2.5526    9.9062    4.3841 H   0  0  0  0  0  0
    0.2460    8.8838    0.6650 H   0  0  0  0  0  0
    1.1695    7.4336    0.2040 H   0  0  0  0  0  0
    0.1947    7.4319    1.6934 H   0  0  0  0  0  0
   -1.1603   -0.0975   -2.0397 H   0  0  0  0  0  0
   -0.4991   -1.5761   -1.5935 H   0  0  0  0  0  0
  1  2  1  0  0  0
  1  6  2  0  0  0
  2  3  2  0  0  0
  2 26  1  0  0  0
  3  4  1  0  0  0
  4  5  2  0  0  0
  4 10  1  0  0  0
  5  6  1  0  0  0
  5  8  1  0  0  0
  6  7  1  0  0  0
  7 27  1  0  0  0
  7 28  1  0  0  0
  8  9  2  0  0  0
  8 11  1  0  0  0
  9 10  1  0  0  0
  9 29  1  0  0  0
 11 12  1  0  0  0
 11 30  1  0  0  0
 11 31  1  0  0  0
 12 13  1  0  0  0
 12 32  1  0  0  0
 12 33  1  0  0  0
 13 14  1  0  0  0
 13 18  2  0  0  0
 14 15  2  0  0  0
 14 34  1  0  0  0
 15 16  1  0  0  0
 15 24  1  0  0  0
 16 17  2  0  0  0
 16 22  1  0  0  0
 17 18  1  0  0  0
 17 20  1  0  0  0
 18 19  1  0  0  0
 20 21  1  0  0  0
 21 35  1  0  0  0
 21 36  1  0  0  0
 21 37  1  0  0  0
 22 23  1  0  0  0
 23 38  1  0  0  0
 23 39  1  0  0  0
 23 40  1  0  0  0
 24 25  1  0  0  0
 25 41  1  0  0  0
 25 42  1  0  0  0
 25 43  1  0  0  0
 26 44  1  0  0  0
 26 45  1  0  0  0
M  END
>  <Activity>
5.55284

>  <set_rl>
1

>  <Min_dist>
999.9

>  <Avg_dist>
999.9

>  <PC_uM>
49

>  <TG_uM>
2.5

>  <RL_uM>
2.8

$$$$
41-5B
 Wcorina  11170919323D 1   1.00000     0.00000              
CORINA evaluation license 3.46 0067  05.08.2008
 51 55  0  0  0  0  0  0  0  0999 V2000
    0.3423    1.1979   -0.3361 N   0  0  0  0  0  0
    0.4100   -0.1254   -0.2643 C   0  0  0  0  0  0
    1.5151   -0.7632    0.0847 N   0  0  0  0  0  0
    2.6230   -0.0893    0.3830 C   0  0  0  0  0  0
    2.5929    1.3134    0.3191 C   0  0  0  0  0  0
    1.4013    1.9511   -0.0553 C   0  0  0  0  0  0
    1.3296    3.3301   -0.1309 N   0  0  0  0  0  0
    3.9376    1.7555    0.6964 C   0  0  0  0  0  0
    4.6386    0.6407    0.9459 C   0  0  0  0  0  0
    3.8625   -0.4440    0.7607 O   0  0  0  0  0  0
    4.4328    3.1761    0.7852 C   0  0  0  0  0  0
    3.9986    3.7662    2.0538 N   0  0  0  0  0  0
    4.7616    3.5758    3.2118 C   0  0  0  0  0  0
    4.3505    4.1338    4.4103 C   0  0  0  0  0  0
    5.1135    3.9412    5.5593 C   0  0  0  0  0  0
    6.2934    3.1849    5.5023 C   0  0  0  0  0  0
    6.6919    2.6302    4.2903 C   0  0  0  0  0  0
    5.9298    2.8208    3.1582 C   0  0  0  0  0  0
    6.8517    3.1517    6.7706 N   0  0  0  0  0  0
    6.0676    3.8671    7.6576 C   0  0  0  0  0  0
    4.9670    4.3839    6.9583 C   0  0  0  0  0  0
    4.0142    5.1507    7.6250 C   0  0  0  0  0  0
    4.1567    5.3994    8.9730 C   0  0  0  0  0  0
    5.2440    4.8892    9.6660 C   0  0  0  0  0  0
    6.1935    4.1285    9.0189 C   0  0  0  0  0  0
    8.0935    2.4581    7.1214 C   0  0  0  0  0  0
    9.2774    3.4109    6.9440 C   0  0  0  0  0  0
    2.7658    4.5556    2.1106 C   0  0  0  0  0  0
   -0.7197   -0.8672   -0.5659 N   0  0  0  0  0  0
    0.4725    3.7647   -0.2627 H   0  0  0  0  0  0
    2.1365    3.8628   -0.0522 H   0  0  0  0  0  0
    5.6745    0.6160    1.2506 H   0  0  0  0  0  0
    5.5215    3.1852    0.7340 H   0  0  0  0  0  0
    4.0252    3.7554   -0.0433 H   0  0  0  0  0  0
    3.4422    4.7163    4.4539 H   0  0  0  0  0  0
    7.5992    2.0467    4.2371 H   0  0  0  0  0  0
    6.2430    2.3840    2.2215 H   0  0  0  0  0  0
    3.1667    5.5494    7.0872 H   0  0  0  0  0  0
    3.4191    5.9940    9.4914 H   0  0  0  0  0  0
    5.3475    5.0897   10.7222 H   0  0  0  0  0  0
    7.0363    3.7357    9.5682 H   0  0  0  0  0  0
    8.0448    2.1284    8.1592 H   0  0  0  0  0  0
    8.2227    1.5930    6.4710 H   0  0  0  0  0  0
    9.3261    3.7406    5.9062 H   0  0  0  0  0  0
    9.1482    4.2760    7.5944 H   0  0  0  0  0  0
   10.2014    2.8948    7.2050 H   0  0  0  0  0  0
    1.9279    3.9037    2.3576 H   0  0  0  0  0  0
    2.8632    5.3272    2.8742 H   0  0  0  0  0  0
    2.5889    5.0233    1.1420 H   0  0  0  0  0  0
   -1.5400   -0.4183   -0.8236 H   0  0  0  0  0  0
   -0.6907   -1.8356   -0.5193 H   0  0  0  0  0  0
  1  2  1  0  0  0
  1  6  2  0  0  0
  2  3  2  0  0  0
  2 29  1  0  0  0
  3  4  1  0  0  0
  4  5  2  0  0  0
  4 10  1  0  0  0
  5  6  1  0  0  0
  5  8  1  0  0  0
  6  7  1  0  0  0
  7 30  1  0  0  0
  7 31  1  0  0  0
  8  9  2  0  0  0
  8 11  1  0  0  0
  9 10  1  0  0  0
  9 32  1  0  0  0
 11 12  1  0  0  0
 11 33  1  0  0  0
 11 34  1  0  0  0
 12 13  1  0  0  0
 12 28  1  0  0  0
 13 14  1  0  0  0
 13 18  2  0  0  0
 14 15  2  0  0  0
 14 35  1  0  0  0
 15 16  1  0  0  0
 15 21  1  0  0  0
 16 17  2  0  0  0
 16 19  1  0  0  0
 17 18  1  0  0  0
 17 36  1  0  0  0
 18 37  1  0  0  0
 19 20  1  0  0  0
 19 26  1  0  0  0
 20 21  2  0  0  0
 20 25  1  0  0  0
 21 22  1  0  0  0
 22 23  2  0  0  0
 22 38  1  0  0  0
 23 24  1  0  0  0
 23 39  1  0  0  0
 24 25  2  0  0  0
 24 40  1  0  0  0
 25 41  1  0  0  0
 26 27  1  0  0  0
 26 42  1  0  0  0
 26 43  1  0  0  0
 27 44  1  0  0  0
 27 45  1  0  0  0
 27 46  1  0  0  0
 28 47  1  0  0  0
 28 48  1  0  0  0
 28 49  1  0  0  0
 29 50  1  0  0  0
 29 51  1  0  0  0
M  END
>  <Activity>
4.6073

>  <set_rl>
1

>  <Min_dist>
999.9

>  <Avg_dist>
999.9

>  <PC_uM>
18.7

>  <TG_uM>
22.6

>  <RL_uM>
24.7

$$$$
43-7
 Wcorina  11170919323D 1   1.00000     0.00000              
CORINA evaluation license 3.46 0067  05.08.2008
 43 45  0  0  0  0  0  0  0  0999 V2000
   -0.0164    1.3593    0.0095 N   0  0  0  0  0  0
    0.0021   -0.0041    0.0020 C   0  0  0  0  0  0
    1.1235   -0.6875   -0.0123 N   0  0  0  0  0  0
    2.3138   -0.0696   -0.0204 C   0  0  0  0  0  0
    2.3559    1.3317   -0.0132 C   0  0  0  0  0  0
    3.7707    1.7001   -0.0247 C   0  0  0  0  0  0
    4.4684    0.5522   -0.0376 C   0  0  0  0  0  0
    3.6036   -0.5133   -0.0350 N   0  0  0  0  0  0
    3.8706   -1.4458   -0.0423 H   0  0  0  0  0  0
    5.9718    0.4501   -0.0524 C   0  0  0  0  0  0
    4.3366    3.0968   -0.0234 C   0  0  0  0  0  0
    4.5330    3.5428    1.3582 N   0  0  0  0  0  0
    5.0521    4.8168    1.6151 C   0  0  0  0  0  0
    5.2393    5.2422    2.9287 C   0  0  0  0  0  0
    5.7529    6.5029    3.1802 C   0  0  0  0  0  0
    6.0803    7.3403    2.1292 C   0  0  0  0  0  0
    5.8947    6.9200    0.8208 C   0  0  0  0  0  0
    5.3863    5.6558    0.5630 C   0  0  0  0  0  0
    6.2168    7.7461   -0.2102 O   0  0  0  0  0  0
    6.7410    9.0317    0.1280 C   0  0  0  0  0  0
    4.9172    4.4193    3.9636 O   0  0  0  0  0  0
    5.1354    4.9210    5.2837 C   0  0  0  0  0  0
    1.1432    2.0550    0.0022 C   0  0  0  0  0  0
    1.1417    3.2740    0.0083 O   0  0  0  0  0  0
   -1.1899   -0.6842    0.0102 N   0  0  0  0  0  0
   -0.8637    1.8315    0.0161 H   0  0  0  0  0  0
    6.3441    0.4200    0.9716 H   0  0  0  0  0  0
    6.2691   -0.4597   -0.5740 H   0  0  0  0  0  0
    6.3898    1.3162   -0.5656 H   0  0  0  0  0  0
    5.2931    3.1018   -0.5462 H   0  0  0  0  0  0
    3.6435    3.7702   -0.5275 H   0  0  0  0  0  0
    4.3032    2.9551    2.0949 H   0  0  0  0  0  0
    5.8979    6.8331    4.1983 H   0  0  0  0  0  0
    6.4809    8.3234    2.3278 H   0  0  0  0  0  0
    5.2464    5.3269   -0.4561 H   0  0  0  0  0  0
    7.6587    8.9100    0.7034 H   0  0  0  0  0  0
    6.9553    9.5881   -0.7845 H   0  0  0  0  0  0
    6.0088    9.5776    0.7229 H   0  0  0  0  0  0
    6.1921    5.1548    5.4134 H   0  0  0  0  0  0
    4.5427    5.8237    5.4319 H   0  0  0  0  0  0
    4.8379    4.1673    6.0127 H   0  0  0  0  0  0
   -2.0274   -0.1950    0.0211 H   0  0  0  0  0  0
   -1.1948   -1.6542    0.0050 H   0  0  0  0  0  0
  1  2  1  0  0  0
  1 23  1  0  0  0
  1 26  1  0  0  0
  2  3  2  0  0  0
  2 25  1  0  0  0
  3  4  1  0  0  0
  4  5  2  0  0  0
  4  8  1  0  0  0
  5  6  1  0  0  0
  5 23  1  0  0  0
  6  7  2  0  0  0
  6 11  1  0  0  0
  7  8  1  0  0  0
  7 10  1  0  0  0
  8  9  1  0  0  0
 10 27  1  0  0  0
 10 28  1  0  0  0
 10 29  1  0  0  0
 11 12  1  0  0  0
 11 30  1  0  0  0
 11 31  1  0  0  0
 12 13  1  0  0  0
 12 32  1  0  0  0
 13 14  1  0  0  0
 13 18  2  0  0  0
 14 15  2  0  0  0
 14 21  1  0  0  0
 15 16  1  0  0  0
 15 33  1  0  0  0
 16 17  2  0  0  0
 16 34  1  0  0  0
 17 18  1  0  0  0
 17 19  1  0  0  0
 18 35  1  0  0  0
 19 20  1  0  0  0
 20 36  1  0  0  0
 20 37  1  0  0  0
 20 38  1  0  0  0
 21 22  1  0  0  0
 22 39  1  0  0  0
 22 40  1  0  0  0
 22 41  1  0  0  0
 23 24  2  0  0  0
 25 42  1  0  0  0
 25 43  1  0  0  0
M  END
>  <Activity>
4.3279

>  <set_rl>
1

>  <Min_dist>
999.9

>  <Avg_dist>
999.9

>  <PC_uM>
47

>  <TG_uM>
2.2

>  <RL_uM>
47

$$$$
43-8
 Wcorina  11170919323D 1   1.00000     0.00000              
CORINA evaluation license 3.46 0067  05.08.2008
 43 45  0  0  0  0  0  0  0  0999 V2000
   -0.0164    1.3593    0.0095 N   0  0  0  0  0  0
    0.0021   -0.0041    0.0020 C   0  0  0  0  0  0
    1.1235   -0.6875   -0.0123 N   0  0  0  0  0  0
    2.3138   -0.0696   -0.0204 C   0  0  0  0  0  0
    2.3559    1.3317   -0.0132 C   0  0  0  0  0  0
    3.7707    1.7001   -0.0247 C   0  0  0  0  0  0
    4.4684    0.5522   -0.0376 C   0  0  0  0  0  0
    3.6036   -0.5133   -0.0350 N   0  0  0  0  0  0
    3.8706   -1.4458   -0.0423 H   0  0  0  0  0  0
    5.9718    0.4501   -0.0524 C   0  0  0  0  0  0
    4.3366    3.0968   -0.0234 C   0  0  0  0  0  0
    4.5330    3.5428    1.3582 N   0  0  0  0  0  0
    5.0510    4.8141    1.6146 C   0  0  0  0  0  0
    5.2373    5.2373    2.9240 C   0  0  0  0  0  0
    5.7520    6.4993    3.1776 C   0  0  0  0  0  0
    6.0809    7.3391    2.1240 C   0  0  0  0  0  0
    5.8948    6.9175    0.8158 C   0  0  0  0  0  0
    5.3855    5.6536    0.5603 C   0  0  0  0  0  0
    6.2165    7.7415   -0.2158 O   0  0  0  0  0  0
    6.7414    9.0273    0.1204 C   0  0  0  0  0  0
    5.9340    6.9137    4.4589 O   0  0  0  0  0  0
    6.4683    8.2257    4.6467 C   0  0  0  0  0  0
    1.1432    2.0550    0.0022 C   0  0  0  0  0  0
    1.1417    3.2740    0.0083 O   0  0  0  0  0  0
   -1.1899   -0.6842    0.0102 N   0  0  0  0  0  0
   -0.8637    1.8315    0.0161 H   0  0  0  0  0  0
    6.3441    0.4200    0.9716 H   0  0  0  0  0  0
    6.2691   -0.4597   -0.5740 H   0  0  0  0  0  0
    6.3898    1.3162   -0.5656 H   0  0  0  0  0  0
    5.2931    3.1018   -0.5462 H   0  0  0  0  0  0
    3.6435    3.7702   -0.5275 H   0  0  0  0  0  0
    4.3032    2.9551    2.0949 H   0  0  0  0  0  0
    4.9809    4.5835    3.7445 H   0  0  0  0  0  0
    6.4819    8.3221    2.3222 H   0  0  0  0  0  0
    5.2448    5.3237   -0.4584 H   0  0  0  0  0  0
    6.9556    9.5825   -0.7928 H   0  0  0  0  0  0
    6.0097    9.5744    0.7150 H   0  0  0  0  0  0
    7.6593    8.9060    0.6956 H   0  0  0  0  0  0
    7.4495    8.2892    4.1763 H   0  0  0  0  0  0
    5.8002    8.9584    4.1940 H   0  0  0  0  0  0
    6.5628    8.4303    5.7132 H   0  0  0  0  0  0
   -2.0274   -0.1950    0.0211 H   0  0  0  0  0  0
   -1.1948   -1.6542    0.0050 H   0  0  0  0  0  0
  1  2  1  0  0  0
  1 23  1  0  0  0
  1 26  1  0  0  0
  2  3  2  0  0  0
  2 25  1  0  0  0
  3  4  1  0  0  0
  4  5  2  0  0  0
  4  8  1  0  0  0
  5  6  1  0  0  0
  5 23  1  0  0  0
  6  7  2  0  0  0
  6 11  1  0  0  0
  7  8  1  0  0  0
  7 10  1  0  0  0
  8  9  1  0  0  0
 10 27  1  0  0  0
 10 28  1  0  0  0
 10 29  1  0  0  0
 11 12  1  0  0  0
 11 30  1  0  0  0
 11 31  1  0  0  0
 12 13  1  0  0  0
 12 32  1  0  0  0
 13 14  1  0  0  0
 13 18  2  0  0  0
 14 15  2  0  0  0
 14 33  1  0  0  0
 15 16  1  0  0  0
 15 21  1  0  0  0
 16 17  2  0  0  0
 16 34  1  0  0  0
 17 18  1  0  0  0
 17 19  1  0  0  0
 18 35  1  0  0  0
 19 20  1  0  0  0
 20 36  1  0  0  0
 20 37  1  0  0  0
 20 38  1  0  0  0
 21 22  1  0  0  0
 22 39  1  0  0  0
 22 40  1  0  0  0
 22 41  1  0  0  0
 23 24  2  0  0  0
 25 42  1  0  0  0
 25 43  1  0  0  0
M  END
>  <Activity>
4.69897

>  <set_rl>
1

>  <Min_dist>
999.9

>  <Avg_dist>
999.9

>  <PC_uM>
20

>  <TG_uM>
2.6

>  <RL_uM>
20

$$$$
43-9
 Wcorina  11170919323D 1   1.00000     0.00000              
CORINA evaluation license 3.46 0067  05.08.2008
 43 45  0  0  0  0  0  0  0  0999 V2000
   -0.0164    1.3593    0.0095 N   0  0  0  0  0  0
    0.0021   -0.0041    0.0020 C   0  0  0  0  0  0
    1.1235   -0.6875   -0.0123 N   0  0  0  0  0  0
    2.3138   -0.0696   -0.0204 C   0  0  0  0  0  0
    2.3559    1.3317   -0.0132 C   0  0  0  0  0  0
    3.7707    1.7001   -0.0247 C   0  0  0  0  0  0
    4.4684    0.5522   -0.0376 C   0  0  0  0  0  0
    3.6036   -0.5133   -0.0350 N   0  0  0  0  0  0
    3.8706   -1.4458   -0.0423 H   0  0  0  0  0  0
    5.9718    0.4501   -0.0524 C   0  0  0  0  0  0
    4.3366    3.0968   -0.0234 C   0  0  0  0  0  0
    4.5330    3.5428    1.3582 N   0  0  0  0  0  0
    5.0531    4.8193    1.6157 C   0  0  0  0  0  0
    5.2401    5.2442    2.9293 C   0  0  0  0  0  0
    5.7539    6.5052    3.1802 C   0  0  0  0  0  0
    6.0813    7.3429    2.1240 C   0  0  0  0  0  0
    5.8946    6.9186    0.8173 C   0  0  0  0  0  0
    5.3871    5.6577    0.5633 C   0  0  0  0  0  0
    6.5855    8.5816    2.3705 O   0  0  0  0  0  0
    6.9007    9.3913    1.2360 C   0  0  0  0  0  0
    4.9182    4.4217    3.9635 O   0  0  0  0  0  0
    5.1364    4.9235    5.2836 C   0  0  0  0  0  0
    1.1432    2.0550    0.0022 C   0  0  0  0  0  0
    1.1417    3.2740    0.0083 O   0  0  0  0  0  0
   -1.1899   -0.6842    0.0102 N   0  0  0  0  0  0
   -0.8637    1.8315    0.0161 H   0  0  0  0  0  0
    6.3441    0.4200    0.9716 H   0  0  0  0  0  0
    6.2691   -0.4597   -0.5740 H   0  0  0  0  0  0
    6.3898    1.3162   -0.5656 H   0  0  0  0  0  0
    5.2931    3.1018   -0.5462 H   0  0  0  0  0  0
    3.6435    3.7702   -0.5275 H   0  0  0  0  0  0
    4.3032    2.9551    2.0949 H   0  0  0  0  0  0
    5.8993    6.8367    4.1977 H   0  0  0  0  0  0
    6.1499    7.5725   -0.0035 H   0  0  0  0  0  0
    5.2470    5.3274   -0.4554 H   0  0  0  0  0  0
    7.6497    8.8863    0.6261 H   0  0  0  0  0  0
    5.9999    9.5542    0.6443 H   0  0  0  0  0  0
    7.2930   10.3511    1.5723 H   0  0  0  0  0  0
    6.1931    5.1573    5.4133 H   0  0  0  0  0  0
    4.5437    5.8262    5.4318 H   0  0  0  0  0  0
    4.8389    4.1697    6.0126 H   0  0  0  0  0  0
   -2.0274   -0.1950    0.0211 H   0  0  0  0  0  0
   -1.1948   -1.6542    0.0050 H   0  0  0  0  0  0
  1  2  1  0  0  0
  1 23  1  0  0  0
  1 26  1  0  0  0
  2  3  2  0  0  0
  2 25  1  0  0  0
  3  4  1  0  0  0
  4  5  2  0  0  0
  4  8  1  0  0  0
  5  6  1  0  0  0
  5 23  1  0  0  0
  6  7  2  0  0  0
  6 11  1  0  0  0
  7  8  1  0  0  0
  7 10  1  0  0  0
  8  9  1  0  0  0
 10 27  1  0  0  0
 10 28  1  0  0  0
 10 29  1  0  0  0
 11 12  1  0  0  0
 11 30  1  0  0  0
 11 31  1  0  0  0
 12 13  1  0  0  0
 12 32  1  0  0  0
 13 14  1  0  0  0
 13 18  2  0  0  0
 14 15  2  0  0  0
 14 21  1  0  0  0
 15 16  1  0  0  0
 15 33  1  0  0  0
 16 17  2  0  0  0
 16 19  1  0  0  0
 17 18  1  0  0  0
 17 34  1  0  0  0
 18 35  1  0  0  0
 19 20  1  0  0  0
 20 36  1  0  0  0
 20 37  1  0  0  0
 20 38  1  0  0  0
 21 22  1  0  0  0
 22 39  1  0  0  0
 22 40  1  0  0  0
 22 41  1  0  0  0
 23 24  2  0  0  0
 25 42  1  0  0  0
 25 43  1  0  0  0
M  END
>  <Activity>
4.79588

>  <set_rl>
1

>  <Min_dist>
999.9

>  <Avg_dist>
999.9

>  <PC_uM>
16

>  <TG_uM>
7.1

>  <RL_uM>
16

$$$$
43-10
 Wcorina  11170919323D 1   1.00000     0.00000              
CORINA evaluation license 3.46 0067  05.08.2008
 47 49  0  0  0  0  0  0  0  0999 V2000
   -0.0164    1.3593    0.0095 N   0  0  0  0  0  0
    0.0021   -0.0041    0.0020 C   0  0  0  0  0  0
    1.1235   -0.6875   -0.0123 N   0  0  0  0  0  0
    2.3138   -0.0696   -0.0204 C   0  0  0  0  0  0
    2.3559    1.3317   -0.0132 C   0  0  0  0  0  0
    3.7707    1.7001   -0.0247 C   0  0  0  0  0  0
    4.4684    0.5522   -0.0376 C   0  0  0  0  0  0
    3.6036   -0.5133   -0.0350 N   0  0  0  0  0  0
    3.8706   -1.4458   -0.0423 H   0  0  0  0  0  0
    5.9718    0.4501   -0.0524 C   0  0  0  0  0  0
    4.3366    3.0968   -0.0234 C   0  0  0  0  0  0
    4.5330    3.5428    1.3582 N   0  0  0  0  0  0
    5.0519    4.8164    1.6151 C   0  0  0  0  0  0
    5.2379    5.2387    2.9244 C   0  0  0  0  0  0
    5.7520    6.5005    3.1797 C   0  0  0  0  0  0
    6.0814    7.3427    2.1246 C   0  0  0  0  0  0
    5.8950    6.9193    0.8142 C   0  0  0  0  0  0
    5.3860    5.6551    0.5604 C   0  0  0  0  0  0
    6.2170    7.7429   -0.2189 O   0  0  0  0  0  0
    5.9993    7.2424   -1.5396 C   0  0  0  0  0  0
    6.5861    8.5826    2.3747 O   0  0  0  0  0  0
    8.0067    8.6955    2.4808 C   0  0  0  0  0  0
    5.9336    6.9141    4.4624 O   0  0  0  0  0  0
    5.5732    5.9968    5.4971 C   0  0  0  0  0  0
    1.1432    2.0550    0.0022 C   0  0  0  0  0  0
    1.1417    3.2740    0.0083 O   0  0  0  0  0  0
   -1.1899   -0.6842    0.0102 N   0  0  0  0  0  0
   -0.8637    1.8315    0.0161 H   0  0  0  0  0  0
    6.3441    0.4200    0.9716 H   0  0  0  0  0  0
    6.2691   -0.4597   -0.5740 H   0  0  0  0  0  0
    6.3898    1.3162   -0.5656 H   0  0  0  0  0  0
    5.2931    3.1018   -0.5462 H   0  0  0  0  0  0
    3.6435    3.7702   -0.5275 H   0  0  0  0  0  0
    4.3032    2.9551    2.0949 H   0  0  0  0  0  0
    4.9815    4.5841    3.7444 H   0  0  0  0  0  0
    5.2456    5.3241   -0.4580 H   0  0  0  0  0  0
    6.2968    7.9970   -2.2677 H   0  0  0  0  0  0
    6.5923    6.3401   -1.6886 H   0  0  0  0  0  0
    4.9427    7.0085   -1.6699 H   0  0  0  0  0  0
    8.2748    9.7329    2.6806 H   0  0  0  0  0  0
    8.3614    8.0650    3.2961 H   0  0  0  0  0  0
    8.4674    8.3747    1.5465 H   0  0  0  0  0  0
    4.5137    5.7543    5.4148 H   0  0  0  0  0  0
    6.1632    5.0858    5.3968 H   0  0  0  0  0  0
    5.7676    6.4505    6.4689 H   0  0  0  0  0  0
   -2.0274   -0.1950    0.0211 H   0  0  0  0  0  0
   -1.1948   -1.6542    0.0050 H   0  0  0  0  0  0
  1  2  1  0  0  0
  1 25  1  0  0  0
  1 28  1  0  0  0
  2  3  2  0  0  0
  2 27  1  0  0  0
  3  4  1  0  0  0
  4  5  2  0  0  0
  4  8  1  0  0  0
  5  6  1  0  0  0
  5 25  1  0  0  0
  6  7  2  0  0  0
  6 11  1  0  0  0
  7  8  1  0  0  0
  7 10  1  0  0  0
  8  9  1  0  0  0
 10 29  1  0  0  0
 10 30  1  0  0  0
 10 31  1  0  0  0
 11 12  1  0  0  0
 11 32  1  0  0  0
 11 33  1  0  0  0
 12 13  1  0  0  0
 12 34  1  0  0  0
 13 14  1  0  0  0
 13 18  2  0  0  0
 14 15  2  0  0  0
 14 35  1  0  0  0
 15 16  1  0  0  0
 15 23  1  0  0  0
 16 17  2  0  0  0
 16 21  1  0  0  0
 17 18  1  0  0  0
 17 19  1  0  0  0
 18 36  1  0  0  0
 19 20  1  0  0  0
 20 37  1  0  0  0
 20 38  1  0  0  0
 20 39  1  0  0  0
 21 22  1  0  0  0
 22 40  1  0  0  0
 22 41  1  0  0  0
 22 42  1  0  0  0
 23 24  1  0  0  0
 24 43  1  0  0  0
 24 44  1  0  0  0
 24 45  1  0  0  0
 25 26  2  0  0  0
 27 46  1  0  0  0
 27 47  1  0  0  0
M  END
>  <Activity>
4.65758

>  <set_rl>
1

>  <Min_dist>
999.9

>  <Avg_dist>
999.9

>  <PC_uM>
22

>  <TG_uM>
9.3

>  <RL_uM>
22

$$$$
43-11
 Wcorina  11170919323D 1   1.00000     0.00000              
CORINA evaluation license 3.46 0067  05.08.2008
 35 37  0  0  0  0  0  0  0  0999 V2000
   -0.0164    1.3593    0.0095 N   0  0  0  0  0  0
    0.0021   -0.0041    0.0020 C   0  0  0  0  0  0
    1.1235   -0.6875   -0.0123 N   0  0  0  0  0  0
    2.3138   -0.0696   -0.0204 C   0  0  0  0  0  0
    2.3559    1.3317   -0.0132 C   0  0  0  0  0  0
    3.7707    1.7001   -0.0247 C   0  0  0  0  0  0
    4.4684    0.5522   -0.0376 C   0  0  0  0  0  0
    3.6036   -0.5133   -0.0350 N   0  0  0  0  0  0
    3.8706   -1.4458   -0.0423 H   0  0  0  0  0  0
    5.9718    0.4501   -0.0524 C   0  0  0  0  0  0
    4.3366    3.0968   -0.0234 C   0  0  0  0  0  0
    4.5330    3.5428    1.3582 N   0  0  0  0  0  0
    5.0513    4.8149    1.6148 C   0  0  0  0  0  0
    5.3808    5.6575    0.5613 C   0  0  0  0  0  0
    5.8929    6.9154    0.8186 C   0  0  0  0  0  0
    6.0777    7.3351    2.1244 C   0  0  0  0  0  0
    5.7506    6.4986    3.1755 C   0  0  0  0  0  0
    5.2328    5.2418    2.9251 C   0  0  0  0  0  0
    4.8163    4.1947    4.2456 Cl  0  0  0  0  0  0
    6.3052    7.9696   -0.4977 Cl  0  0  0  0  0  0
    1.1432    2.0550    0.0022 C   0  0  0  0  0  0
    1.1417    3.2740    0.0083 O   0  0  0  0  0  0
   -1.1899   -0.6842    0.0102 N   0  0  0  0  0  0
   -0.8637    1.8315    0.0161 H   0  0  0  0  0  0
    6.3441    0.4200    0.9716 H   0  0  0  0  0  0
    6.2691   -0.4597   -0.5740 H   0  0  0  0  0  0
    6.3898    1.3162   -0.5656 H   0  0  0  0  0  0
    5.2931    3.1018   -0.5462 H   0  0  0  0  0  0
    3.6435    3.7702   -0.5275 H   0  0  0  0  0  0
    4.3032    2.9551    2.0949 H   0  0  0  0  0  0
    5.2375    5.3302   -0.4579 H   0  0  0  0  0  0
    6.4787    8.3181    2.3228 H   0  0  0  0  0  0
    5.8964    6.8289    4.1933 H   0  0  0  0  0  0
   -2.0274   -0.1950    0.0211 H   0  0  0  0  0  0
   -1.1948   -1.6542    0.0050 H   0  0  0  0  0  0
  1  2  1  0  0  0
  1 21  1  0  0  0
  1 24  1  0  0  0
  2  3  2  0  0  0
  2 23  1  0  0  0
  3  4  1  0  0  0
  4  5  2  0  0  0
  4  8  1  0  0  0
  5  6  1  0  0  0
  5 21  1  0  0  0
  6  7  2  0  0  0
  6 11  1  0  0  0
  7  8  1  0  0  0
  7 10  1  0  0  0
  8  9  1  0  0  0
 10 25  1  0  0  0
 10 26  1  0  0  0
 10 27  1  0  0  0
 11 12  1  0  0  0
 11 28  1  0  0  0
 11 29  1  0  0  0
 12 13  1  0  0  0
 12 30  1  0  0  0
 13 14  1  0  0  0
 13 18  2  0  0  0
 14 15  2  0  0  0
 14 31  1  0  0  0
 15 16  1  0  0  0
 15 20  1  0  0  0
 16 17  2  0  0  0
 16 32  1  0  0  0
 17 18  1  0  0  0
 17 33  1  0  0  0
 18 19  1  0  0  0
 21 22  2  0  0  0
 23 34  1  0  0  0
 23 35  1  0  0  0
M  END
>  <Activity>
4.60206

>  <set_rl>
1

>  <Min_dist>
999.9

>  <Avg_dist>
999.9

>  <PC_uM>
25

>  <TG_uM>
0.66

>  <RL_uM>
25

$$$$
43-16
 Wcorina  11170919323D 1   1.00000     0.00000              
CORINA evaluation license 3.46 0067  05.08.2008
 46 48  0  0  0  0  0  0  0  0999 V2000
   -0.2311    2.1771   -0.1622 N   0  0  0  0  0  0
   -0.4658    0.8339   -0.1636 C   0  0  0  0  0  0
    0.5088   -0.0457   -0.1238 N   0  0  0  0  0  0
    1.7922    0.3409   -0.0795 C   0  0  0  0  0  0
    2.0935    1.7101   -0.0759 C   0  0  0  0  0  0
    3.5512    1.8097   -0.0238 C   0  0  0  0  0  0
    4.0234    0.5523   -0.0001 C   0  0  0  0  0  0
    2.9766   -0.3343   -0.0332 N   0  0  0  0  0  0
    3.0659   -1.3002   -0.0245 H   0  0  0  0  0  0
    5.4809    0.1732    0.0545 C   0  0  0  0  0  0
    4.3660    3.0773   -0.0019 C   0  0  0  0  0  0
    4.4939    3.5518    1.3782 N   0  0  0  0  0  0
    5.6256    3.2230    2.1276 C   0  0  0  0  0  0
    5.7003    3.5821    3.4668 C   0  0  0  0  0  0
    6.8239    3.2549    4.2101 C   0  0  0  0  0  0
    7.8731    2.5691    3.6165 C   0  0  0  0  0  0
    7.7994    2.2104    2.2787 C   0  0  0  0  0  0
    6.6742    2.5317    1.5354 C   0  0  0  0  0  0
    8.8284    1.5392    1.6978 O   0  0  0  0  0  0
    9.9541    1.2360    2.5242 C   0  0  0  0  0  0
    6.8975    3.6067    5.5207 O   0  0  0  0  0  0
    8.0843    3.2375    6.2259 C   0  0  0  0  0  0
    3.4346    4.3711    1.9722 C   0  0  0  0  0  0
    1.0367    2.6457   -0.1190 C   0  0  0  0  0  0
    1.2613    3.8439   -0.1177 O   0  0  0  0  0  0
   -1.7624    0.3866   -0.2075 N   0  0  0  0  0  0
   -0.9754    2.7981   -0.1964 H   0  0  0  0  0  0
    5.8207    0.1844    1.0901 H   0  0  0  0  0  0
    5.6122   -0.8262   -0.3602 H   0  0  0  0  0  0
    6.0641    0.8874   -0.5269 H   0  0  0  0  0  0
    5.3566    2.8795   -0.4114 H   0  0  0  0  0  0
    3.8695    3.8388   -0.6034 H   0  0  0  0  0  0
    4.8836    4.1165    3.9292 H   0  0  0  0  0  0
    8.7481    2.3145    4.1961 H   0  0  0  0  0  0
    6.6151    2.2484    0.4949 H   0  0  0  0  0  0
   10.3858    2.1620    2.9041 H   0  0  0  0  0  0
    9.6340    0.6145    3.3604 H   0  0  0  0  0  0
   10.7011    0.7004    1.9384 H   0  0  0  0  0  0
    8.0136    3.5774    7.2591 H   0  0  0  0  0  0
    8.1957    2.1533    6.2069 H   0  0  0  0  0  0
    8.9487    3.7000    5.7495 H   0  0  0  0  0  0
    2.7025    3.7241    2.4554 H   0  0  0  0  0  0
    3.8678    5.0450    2.7114 H   0  0  0  0  0  0
    2.9454    4.9540    1.1918 H   0  0  0  0  0  0
   -2.4942    1.0226   -0.2370 H   0  0  0  0  0  0
   -1.9472   -0.5657   -0.2091 H   0  0  0  0  0  0
  1  2  1  0  0  0
  1 24  1  0  0  0
  1 27  1  0  0  0
  2  3  2  0  0  0
  2 26  1  0  0  0
  3  4  1  0  0  0
  4  5  2  0  0  0
  4  8  1  0  0  0
  5  6  1  0  0  0
  5 24  1  0  0  0
  6  7  2  0  0  0
  6 11  1  0  0  0
  7  8  1  0  0  0
  7 10  1  0  0  0
  8  9  1  0  0  0
 10 28  1  0  0  0
 10 29  1  0  0  0
 10 30  1  0  0  0
 11 12  1  0  0  0
 11 31  1  0  0  0
 11 32  1  0  0  0
 12 13  1  0  0  0
 12 23  1  0  0  0
 13 14  1  0  0  0
 13 18  2  0  0  0
 14 15  2  0  0  0
 14 33  1  0  0  0
 15 16  1  0  0  0
 15 21  1  0  0  0
 16 17  2  0  0  0
 16 34  1  0  0  0
 17 18  1  0  0  0
 17 19  1  0  0  0
 18 35  1  0  0  0
 19 20  1  0  0  0
 20 36  1  0  0  0
 20 37  1  0  0  0
 20 38  1  0  0  0
 21 22  1  0  0  0
 22 39  1  0  0  0
 22 40  1  0  0  0
 22 41  1  0  0  0
 23 42  1  0  0  0
 23 43  1  0  0  0
 23 44  1  0  0  0
 24 25  2  0  0  0
 26 45  1  0  0  0
 26 46  1  0  0  0
M  END
>  <Activity>
4.06048

>  <set_rl>
1

>  <Min_dist>
999.9

>  <Avg_dist>
999.9

>  <PC_uM>
87

>  <TG_uM>
4.2

>  <RL_uM>
87

$$$$
43-17
 Wcorina  11170919323D 1   1.00000     0.00000              
CORINA evaluation license 3.46 0067  05.08.2008
 50 52  0  0  0  0  0  0  0  0999 V2000
   -0.1341    2.4694   -0.6192 N   0  0  0  0  0  0
   -0.4369    1.1458   -0.4946 C   0  0  0  0  0  0
    0.4755    0.2439   -0.2135 N   0  0  0  0  0  0
    1.7596    0.5869   -0.0342 C   0  0  0  0  0  0
    2.1293    1.9342   -0.1502 C   0  0  0  0  0  0
    3.5695    1.9875    0.0953 C   0  0  0  0  0  0
    3.9672    0.7269    0.3343 C   0  0  0  0  0  0
    2.8894   -0.1191    0.2587 N   0  0  0  0  0  0
    2.9257   -1.0789    0.3942 H   0  0  0  0  0  0
    5.3818    0.3058    0.6390 C   0  0  0  0  0  0
    4.4394    3.2180    0.0819 C   0  0  0  0  0  0
    4.4909    3.7942    1.4279 N   0  0  0  0  0  0
    5.5605    3.4921    2.2777 C   0  0  0  0  0  0
    5.5451    3.9300    3.5950 C   0  0  0  0  0  0
    6.6045    3.6311    4.4376 C   0  0  0  0  0  0
    7.6821    2.8929    3.9633 C   0  0  0  0  0  0
    7.6969    2.4550    2.6445 C   0  0  0  0  0  0
    6.6341    2.7498    1.8047 C   0  0  0  0  0  0
    8.7510    1.7325    2.1795 O   0  0  0  0  0  0
    8.7533    1.4109    0.7872 C   0  0  0  0  0  0
    8.7235    2.5992    4.7903 O   0  0  0  0  0  0
    8.6370    1.3831    5.5357 C   0  0  0  0  0  0
    6.5894    4.0605    5.7278 O   0  0  0  0  0  0
    5.4504    4.8146    6.1473 C   0  0  0  0  0  0
    3.4225    4.6868    1.8840 C   0  0  0  0  0  0
    1.1389    2.8943   -0.4529 C   0  0  0  0  0  0
    1.4240    4.0745   -0.5617 O   0  0  0  0  0  0
   -1.7373    0.7430   -0.6682 N   0  0  0  0  0  0
   -0.8331    3.1075   -0.8316 H   0  0  0  0  0  0
    5.5763    0.4297    1.7043 H   0  0  0  0  0  0
    5.5166   -0.7404    0.3643 H   0  0  0  0  0  0
    6.0756    0.9234    0.0687 H   0  0  0  0  0  0
    5.4462    2.9478   -0.2364 H   0  0  0  0  0  0
    4.0234    3.9496   -0.6108 H   0  0  0  0  0  0
    4.7077    4.5040    3.9634 H   0  0  0  0  0  0
    6.6432    2.4055    0.7811 H   0  0  0  0  0  0
    9.6879    0.9117    0.5312 H   0  0  0  0  0  0
    7.9157    0.7496    0.5657 H   0  0  0  0  0  0
    8.6582    2.3260    0.2027 H   0  0  0  0  0  0
    9.5286    1.2708    6.1525 H   0  0  0  0  0  0
    7.7543    1.4105    6.1746 H   0  0  0  0  0  0
    8.5621    0.5403    4.8485 H   0  0  0  0  0  0
    5.3660    5.7145    5.5382 H   0  0  0  0  0  0
    4.5510    4.2102    6.0293 H   0  0  0  0  0  0
    5.5654    5.0941    7.1946 H   0  0  0  0  0  0
    2.6386    4.1000    2.3630 H   0  0  0  0  0  0
    3.8278    5.4033    2.5984 H   0  0  0  0  0  0
    3.0060    5.2210    1.0301 H   0  0  0  0  0  0
   -2.4237    1.3961   -0.8760 H   0  0  0  0  0  0
   -1.9700   -0.1948   -0.5831 H   0  0  0  0  0  0
  1  2  1  0  0  0
  1 26  1  0  0  0
  1 29  1  0  0  0
  2  3  2  0  0  0
  2 28  1  0  0  0
  3  4  1  0  0  0
  4  5  2  0  0  0
  4  8  1  0  0  0
  5  6  1  0  0  0
  5 26  1  0  0  0
  6  7  2  0  0  0
  6 11  1  0  0  0
  7  8  1  0  0  0
  7 10  1  0  0  0
  8  9  1  0  0  0
 10 30  1  0  0  0
 10 31  1  0  0  0
 10 32  1  0  0  0
 11 12  1  0  0  0
 11 33  1  0  0  0
 11 34  1  0  0  0
 12 13  1  0  0  0
 12 25  1  0  0  0
 13 14  1  0  0  0
 13 18  2  0  0  0
 14 15  2  0  0  0
 14 35  1  0  0  0
 15 16  1  0  0  0
 15 23  1  0  0  0
 16 17  2  0  0  0
 16 21  1  0  0  0
 17 18  1  0  0  0
 17 19  1  0  0  0
 18 36  1  0  0  0
 19 20  1  0  0  0
 20 37  1  0  0  0
 20 38  1  0  0  0
 20 39  1  0  0  0
 21 22  1  0  0  0
 22 40  1  0  0  0
 22 41  1  0  0  0
 22 42  1  0  0  0
 23 24  1  0  0  0
 24 43  1  0  0  0
 24 44  1  0  0  0
 24 45  1  0  0  0
 25 46  1  0  0  0
 25 47  1  0  0  0
 25 48  1  0  0  0
 26 27  2  0  0  0
 28 49  1  0  0  0
 28 50  1  0  0  0
M  END
>  <Activity>
4.34679

>  <set_rl>
1

>  <Min_dist>
999.9

>  <Avg_dist>
999.9

>  <PC_uM>
45

>  <TG_uM>
37

>  <RL_uM>
45

$$$$
43-14
 Wcorina  11170919323D 1   1.00000     0.00000              
CORINA evaluation license 3.46 0067  05.08.2008
 35 37  0  0  0  0  0  0  0  0999 V2000
   -0.0164    1.3593    0.0095 N   0  0  0  0  0  0
    0.0021   -0.0041    0.0020 C   0  0  0  0  0  0
    1.1235   -0.6875   -0.0123 N   0  0  0  0  0  0
    2.3138   -0.0696   -0.0204 C   0  0  0  0  0  0
    2.3559    1.3317   -0.0132 C   0  0  0  0  0  0
    3.7707    1.7001   -0.0247 C   0  0  0  0  0  0
    4.4684    0.5522   -0.0376 C   0  0  0  0  0  0
    3.6036   -0.5133   -0.0350 N   0  0  0  0  0  0
    3.8706   -1.4458   -0.0423 H   0  0  0  0  0  0
    5.9718    0.4501   -0.0524 C   0  0  0  0  0  0
    4.3366    3.0968   -0.0234 C   0  0  0  0  0  0
    4.5330    3.5428    1.3582 N   0  0  0  0  0  0
    5.0511    4.8143    1.6146 C   0  0  0  0  0  0
    5.2379    5.2387    2.9244 C   0  0  0  0  0  0
    5.7502    6.4962    3.1752 C   0  0  0  0  0  0
    6.0771    7.3338    2.1245 C   0  0  0  0  0  0
    5.8922    6.9150    0.8186 C   0  0  0  0  0  0
    5.3859    5.6546    0.5610 C   0  0  0  0  0  0
    6.3030    7.9702   -0.4972 Cl  0  0  0  0  0  0
    1.1432    2.0550    0.0022 C   0  0  0  0  0  0
    1.1417    3.2740    0.0083 O   0  0  0  0  0  0
   -1.1899   -0.6842    0.0102 N   0  0  0  0  0  0
   -0.8637    1.8315    0.0161 H   0  0  0  0  0  0
    6.3441    0.4200    0.9716 H   0  0  0  0  0  0
    6.2691   -0.4597   -0.5740 H   0  0  0  0  0  0
    6.3898    1.3162   -0.5656 H   0  0  0  0  0  0
    5.2931    3.1018   -0.5462 H   0  0  0  0  0  0
    3.6435    3.7702   -0.5275 H   0  0  0  0  0  0
    4.3032    2.9551    2.0949 H   0  0  0  0  0  0
    4.9822    4.5857    3.7457 H   0  0  0  0  0  0
    5.8954    6.8262    4.1932 H   0  0  0  0  0  0
    6.4773    8.3170    2.3235 H   0  0  0  0  0  0
    5.2464    5.3258   -0.4582 H   0  0  0  0  0  0
   -2.0274   -0.1950    0.0211 H   0  0  0  0  0  0
   -1.1948   -1.6542    0.0050 H   0  0  0  0  0  0
  1  2  1  0  0  0
  1 20  1  0  0  0
  1 23  1  0  0  0
  2  3  2  0  0  0
  2 22  1  0  0  0
  3  4  1  0  0  0
  4  5  2  0  0  0
  4  8  1  0  0  0
  5  6  1  0  0  0
  5 20  1  0  0  0
  6  7  2  0  0  0
  6 11  1  0  0  0
  7  8  1  0  0  0
  7 10  1  0  0  0
  8  9  1  0  0  0
 10 24  1  0  0  0
 10 25  1  0  0  0
 10 26  1  0  0  0
 11 12  1  0  0  0
 11 27  1  0  0  0
 11 28  1  0  0  0
 12 13  1  0  0  0
 12 29  1  0  0  0
 13 14  1  0  0  0
 13 18  2  0  0  0
 14 15  2  0  0  0
 14 30  1  0  0  0
 15 16  1  0  0  0
 15 31  1  0  0  0
 16 17  2  0  0  0
 16 32  1  0  0  0
 17 18  1  0  0  0
 17 19  1  0  0  0
 18 33  1  0  0  0
 20 21  2  0  0  0
 22 34  1  0  0  0
 22 35  1  0  0  0
M  END
>  <Activity>
4.58503

>  <set_rl>
1

>  <Min_dist>
999.9

>  <Avg_dist>
999.9

>  <PC_uM>
26

>  <TG_uM>
3.5

>  <RL_uM>
26

$$$$
44-2
 Wcorina  11170919323D 1   1.00000     0.00000              
CORINA evaluation license 3.46 0067  05.08.2008
 27 29  0  0  0  0  0  0  0  0999 V2000
   -0.0159    1.3229    0.0093 N   0  0  0  0  0  0
    0.0021   -0.0041    0.0020 C   0  0  0  0  0  0
    1.1301   -0.6955   -0.0120 N   0  0  0  0  0  0
    2.3050   -0.0739   -0.0199 C   0  0  0  0  0  0
    2.3361    1.3317   -0.0131 C   0  0  0  0  0  0
    1.1112    2.0250    0.0023 C   0  0  0  0  0  0
    1.0822    3.4081    0.0096 N   0  0  0  0  0  0
    3.6355    1.7072   -0.0234 N   0  0  0  0  0  0
    4.3973    0.6413   -0.0359 C   0  0  0  0  0  0
    3.6138   -0.4859   -0.0342 N   0  0  0  0  0  0
    3.9274   -1.4038   -0.0418 H   0  0  0  0  0  0
    5.8761    0.6510   -0.0506 C   0  0  0  0  0  0
    6.5688    1.8624   -0.0515 C   0  0  0  0  0  0
    7.9484    1.8646   -0.0654 C   0  0  0  0  0  0
    8.6450    0.6693   -0.0784 C   0  0  0  0  0  0
    7.9641   -0.5351   -0.0776 C   0  0  0  0  0  0
    6.5847   -0.5511   -0.0580 C   0  0  0  0  0  0
   -1.2016   -0.6889    0.0098 N   0  0  0  0  0  0
    0.2323    3.8753    0.0199 H   0  0  0  0  0  0
    1.9119    3.9106    0.0044 H   0  0  0  0  0  0
    6.0262    2.7962   -0.0417 H   0  0  0  0  0  0
    8.4858    2.8015   -0.0664 H   0  0  0  0  0  0
    9.7249    0.6764   -0.0896 H   0  0  0  0  0  0
    8.5137   -1.4648   -0.0878 H   0  0  0  0  0  0
    6.0544   -1.4920   -0.0525 H   0  0  0  0  0  0
   -2.0385   -0.1986    0.0205 H   0  0  0  0  0  0
   -1.2078   -1.6589    0.0047 H   0  0  0  0  0  0
  1  2  1  0  0  0
  1  6  2  0  0  0
  2  3  2  0  0  0
  2 18  1  0  0  0
  3  4  1  0  0  0
  4  5  2  0  0  0
  4 10  1  0  0  0
  5  6  1  0  0  0
  5  8  1  0  0  0
  6  7  1  0  0  0
  7 19  1  0  0  0
  7 20  1  0  0  0
  8  9  2  0  0  0
  9 10  1  0  0  0
  9 12  1  0  0  0
 10 11  1  0  0  0
 12 13  1  0  0  0
 12 17  2  0  0  0
 13 14  2  0  0  0
 13 21  1  0  0  0
 14 15  1  0  0  0
 14 22  1  0  0  0
 15 16  2  0  0  0
 15 23  1  0  0  0
 16 17  1  0  0  0
 16 24  1  0  0  0
 17 25  1  0  0  0
 18 26  1  0  0  0
 18 27  1  0  0  0
M  END
>  <Activity>
4.22257

>  <set_rl>
1

>  <Min_dist>
999.9

>  <Avg_dist>
999.9

>  <PC_uM>
153

>  <TG_uM>
28

>  <RL_uM>
59.9

$$$$
44-8
 Wcorina  11170919323D 1   1.00000     0.00000              
CORINA evaluation license 3.46 0067  05.08.2008
 35 37  0  0  0  0  0  0  0  0999 V2000
   -0.0159    1.3229    0.0093 N   0  0  0  0  0  0
    0.0021   -0.0041    0.0020 C   0  0  0  0  0  0
    1.1301   -0.6955   -0.0120 N   0  0  0  0  0  0
    2.3050   -0.0739   -0.0199 C   0  0  0  0  0  0
    2.3361    1.3316   -0.0131 C   0  0  0  0  0  0
    1.1112    2.0250    0.0023 C   0  0  0  0  0  0
    1.0822    3.4081    0.0096 N   0  0  0  0  0  0
    3.6355    1.7072   -0.0227 N   0  0  0  0  0  0
    4.3972    0.6413   -0.0347 C   0  0  0  0  0  0
    3.6138   -0.4859   -0.0335 N   0  0  0  0  0  0
    3.9274   -1.4038   -0.0412 H   0  0  0  0  0  0
    5.8762    0.6510   -0.0485 C   0  0  0  0  0  0
    6.5676    1.8625   -0.0487 C   0  0  0  0  0  0
    7.9526    1.8673   -0.0616 C   0  0  0  0  0  0
    8.6523    0.6694   -0.0748 C   0  0  0  0  0  0
    7.9684   -0.5377   -0.0746 C   0  0  0  0  0  0
    6.5834   -0.5512   -0.0554 C   0  0  0  0  0  0
    8.6583   -1.7085   -0.0875 O   0  0  0  0  0  0
   10.0846   -1.6210   -0.1008 C   0  0  0  0  0  0
    8.6272    3.0472   -0.0619 O   0  0  0  0  0  0
   10.0545    2.9784   -0.0756 C   0  0  0  0  0  0
   -1.2016   -0.6889    0.0098 N   0  0  0  0  0  0
    0.2323    3.8753    0.0199 H   0  0  0  0  0  0
    1.9119    3.9106    0.0044 H   0  0  0  0  0  0
    6.0237    2.7955   -0.0392 H   0  0  0  0  0  0
    9.7322    0.6765   -0.0856 H   0  0  0  0  0  0
    6.0518   -1.4913   -0.0504 H   0  0  0  0  0  0
   10.4071   -1.0811   -0.9911 H   0  0  0  0  0  0
   10.4244   -1.0906    0.7888 H   0  0  0  0  0  0
   10.5101   -2.6244   -0.1103 H   0  0  0  0  0  0
   10.4009    2.4432    0.8085 H   0  0  0  0  0  0
   10.3843    2.4523   -0.9714 H   0  0  0  0  0  0
   10.4668    3.9874   -0.0743 H   0  0  0  0  0  0
   -2.0385   -0.1986    0.0205 H   0  0  0  0  0  0
   -1.2078   -1.6589    0.0047 H   0  0  0  0  0  0
  1  2  1  0  0  0
  1  6  2  0  0  0
  2  3  2  0  0  0
  2 22  1  0  0  0
  3  4  1  0  0  0
  4  5  2  0  0  0
  4 10  1  0  0  0
  5  6  1  0  0  0
  5  8  1  0  0  0
  6  7  1  0  0  0
  7 23  1  0  0  0
  7 24  1  0  0  0
  8  9  2  0  0  0
  9 10  1  0  0  0
  9 12  1  0  0  0
 10 11  1  0  0  0
 12 13  1  0  0  0
 12 17  2  0  0  0
 13 14  2  0  0  0
 13 25  1  0  0  0
 14 15  1  0  0  0
 14 20  1  0  0  0
 15 16  2  0  0  0
 15 26  1  0  0  0
 16 17  1  0  0  0
 16 18  1  0  0  0
 17 27  1  0  0  0
 18 19  1  0  0  0
 19 28  1  0  0  0
 19 29  1  0  0  0
 19 30  1  0  0  0
 20 21  1  0  0  0
 21 31  1  0  0  0
 21 32  1  0  0  0
 21 33  1  0  0  0
 22 34  1  0  0  0
 22 35  1  0  0  0
M  END
>  <Activity>
4.48945

>  <set_rl>
1

>  <Min_dist>
999.9

>  <Avg_dist>
999.9

>  <PC_uM>
9

>  <TG_uM>
3

>  <RL_uM>
32.4

$$$$
44-9
 Wcorina  11170919323D 1   1.00000     0.00000              
CORINA evaluation license 3.46 0067  05.08.2008
 35 37  0  0  0  0  0  0  0  0999 V2000
   -0.0159    1.3229    0.0093 N   0  0  0  0  0  0
    0.0021   -0.0041    0.0020 C   0  0  0  0  0  0
    1.1302   -0.6954   -0.0120 N   0  0  0  0  0  0
    2.3050   -0.0735   -0.0199 C   0  0  0  0  0  0
    2.3359    1.3317   -0.0131 C   0  0  0  0  0  0
    1.1113    2.0249    0.0023 C   0  0  0  0  0  0
    1.0824    3.4082    0.0096 N   0  0  0  0  0  0
    3.6358    1.7076   -0.0234 N   0  0  0  0  0  0
    4.3979    0.6414   -0.0359 C   0  0  0  0  0  0
    3.6142   -0.4858   -0.0342 N   0  0  0  0  0  0
    3.9276   -1.4037   -0.0413 H   0  0  0  0  0  0
    5.8759    0.6510   -0.0501 C   0  0  0  0  0  0
    6.5831   -0.5525   -0.0633 C   0  0  0  0  0  0
    7.9620   -0.5419   -0.0766 C   0  0  0  0  0  0
    8.6496    0.6631   -0.0774 C   0  0  0  0  0  0
    7.9498    1.8676   -0.0647 C   0  0  0  0  0  0
    6.5674    1.8638   -0.0563 C   0  0  0  0  0  0
    8.6266    3.0473   -0.0651 O   0  0  0  0  0  0
    7.8451    4.2436   -0.0517 C   0  0  0  0  0  0
   10.0086    0.6684   -0.0900 O   0  0  0  0  0  0
   10.6623   -0.6023   -0.1021 C   0  0  0  0  0  0
   -1.2018   -0.6891    0.0098 N   0  0  0  0  0  0
    0.2324    3.8755    0.0199 H   0  0  0  0  0  0
    1.9121    3.9107    0.0044 H   0  0  0  0  0  0
    6.0503   -1.4919   -0.0627 H   0  0  0  0  0  0
    8.5079   -1.4738   -0.0860 H   0  0  0  0  0  0
    6.0236    2.7969   -0.0502 H   0  0  0  0  0  0
    8.5067    5.1098   -0.0535 H   0  0  0  0  0  0
    7.2079    4.2712   -0.9357 H   0  0  0  0  0  0
    7.2246    4.2622    0.8442 H   0  0  0  0  0  0
   10.3799   -1.1646    0.7879 H   0  0  0  0  0  0
   10.3633   -1.1563   -0.9919 H   0  0  0  0  0  0
   11.7423   -0.4553   -0.1115 H   0  0  0  0  0  0
   -2.0387   -0.1988    0.0205 H   0  0  0  0  0  0
   -1.2079   -1.6590    0.0047 H   0  0  0  0  0  0
  1  2  1  0  0  0
  1  6  2  0  0  0
  2  3  2  0  0  0
  2 22  1  0  0  0
  3  4  1  0  0  0
  4  5  2  0  0  0
  4 10  1  0  0  0
  5  6  1  0  0  0
  5  8  1  0  0  0
  6  7  1  0  0  0
  7 23  1  0  0  0
  7 24  1  0  0  0
  8  9  2  0  0  0
  9 10  1  0  0  0
  9 12  1  0  0  0
 10 11  1  0  0  0
 12 13  1  0  0  0
 12 17  2  0  0  0
 13 14  2  0  0  0
 13 25  1  0  0  0
 14 15  1  0  0  0
 14 26  1  0  0  0
 15 16  2  0  0  0
 15 20  1  0  0  0
 16 17  1  0  0  0
 16 18  1  0  0  0
 17 27  1  0  0  0
 18 19  1  0  0  0
 19 28  1  0  0  0
 19 29  1  0  0  0
 19 30  1  0  0  0
 20 21  1  0  0  0
 21 31  1  0  0  0
 21 32  1  0  0  0
 21 33  1  0  0  0
 22 34  1  0  0  0
 22 35  1  0  0  0
M  END
>  <Activity>
4.2815

>  <set_rl>
1

>  <Min_dist>
999.9

>  <Avg_dist>
999.9

>  <PC_uM>
12

>  <TG_uM>
14.2

>  <RL_uM>
52.3

$$$$
44-10
 Wcorina  11170919323D 1   1.00000     0.00000              
CORINA evaluation license 3.46 0067  05.08.2008
 35 37  0  0  0  0  0  0  0  0999 V2000
   -0.0159    1.3228    0.0093 N   0  0  0  0  0  0
    0.0021   -0.0041    0.0020 C   0  0  0  0  0  0
    1.1303   -0.6952   -0.0120 N   0  0  0  0  0  0
    2.3050   -0.0732   -0.0199 C   0  0  0  0  0  0
    2.3358    1.3317   -0.0131 C   0  0  0  0  0  0
    1.1115    2.0248    0.0023 C   0  0  0  0  0  0
    1.0826    3.4084    0.0096 N   0  0  0  0  0  0
    3.6362    1.7081   -0.0229 N   0  0  0  0  0  0
    4.3987    0.6414   -0.0352 C   0  0  0  0  0  0
    3.6146   -0.4858   -0.0338 N   0  0  0  0  0  0
    3.9279   -1.4038   -0.0413 H   0  0  0  0  0  0
    5.8752    0.6509   -0.0485 C   0  0  0  0  0  0
    6.5836   -0.5523   -0.0615 C   0  0  0  0  0  0
    7.9611   -0.5397   -0.0738 C   0  0  0  0  0  0
    8.6496    0.6679   -0.0729 C   0  0  0  0  0  0
    7.9547    1.8683   -0.0601 C   0  0  0  0  0  0
    6.5705    1.8674   -0.0539 C   0  0  0  0  0  0
    5.8887    3.0416   -0.0475 O   0  0  0  0  0  0
    6.6639    4.2420   -0.0536 C   0  0  0  0  0  0
   10.0077    0.6724   -0.0842 O   0  0  0  0  0  0
   10.6606   -0.5986   -0.0967 C   0  0  0  0  0  0
   -1.2019   -0.6893    0.0098 N   0  0  0  0  0  0
    0.2326    3.8757    0.0199 H   0  0  0  0  0  0
    1.9123    3.9109    0.0044 H   0  0  0  0  0  0
    6.0519   -1.4923   -0.0615 H   0  0  0  0  0  0
    8.5078   -1.4710   -0.0838 H   0  0  0  0  0  0
    8.4939    2.8041   -0.0594 H   0  0  0  0  0  0
    5.9978    5.1047   -0.0475 H   0  0  0  0  0  0
    7.3003    4.2680    0.8309 H   0  0  0  0  0  0
    7.2850    4.2688   -0.9490 H   0  0  0  0  0  0
   10.3770   -1.1615    0.7926 H   0  0  0  0  0  0
   10.3622   -1.1517   -0.9872 H   0  0  0  0  0  0
   11.7407   -0.4522   -0.1049 H   0  0  0  0  0  0
   -2.0388   -0.1991    0.0205 H   0  0  0  0  0  0
   -1.2080   -1.6592    0.0047 H   0  0  0  0  0  0
  1  2  1  0  0  0
  1  6  2  0  0  0
  2  3  2  0  0  0
  2 22  1  0  0  0
  3  4  1  0  0  0
  4  5  2  0  0  0
  4 10  1  0  0  0
  5  6  1  0  0  0
  5  8  1  0  0  0
  6  7  1  0  0  0
  7 23  1  0  0  0
  7 24  1  0  0  0
  8  9  2  0  0  0
  9 10  1  0  0  0
  9 12  1  0  0  0
 10 11  1  0  0  0
 12 13  1  0  0  0
 12 17  2  0  0  0
 13 14  2  0  0  0
 13 25  1  0  0  0
 14 15  1  0  0  0
 14 26  1  0  0  0
 15 16  2  0  0  0
 15 20  1  0  0  0
 16 17  1  0  0  0
 16 27  1  0  0  0
 17 18  1  0  0  0
 18 19  1  0  0  0
 19 28  1  0  0  0
 19 29  1  0  0  0
 19 30  1  0  0  0
 20 21  1  0  0  0
 21 31  1  0  0  0
 21 32  1  0  0  0
 21 33  1  0  0  0
 22 34  1  0  0  0
 22 35  1  0  0  0
M  END
>  <Activity>
6.04576

>  <set_rl>
1

>  <Min_dist>
999.9

>  <Avg_dist>
999.9

>  <PC_uM>
14

>  <TG_uM>
2.4

>  <RL_uM>
0.9

$$$$
44-12
 Wcorina  11170919323D 1   1.00000     0.00000              
CORINA evaluation license 3.46 0067  05.08.2008
 27 29  0  0  0  0  0  0  0  0999 V2000
   -0.0155    1.3215    0.0512 N   0  0  0  0  0  0
    0.0017   -0.0027   -0.0344 C   0  0  0  0  0  0
    1.1294   -0.6927   -0.0896 N   0  0  0  0  0  0
    2.3046   -0.0722   -0.0613 C   0  0  0  0  0  0
    2.3364    1.3303    0.0284 C   0  0  0  0  0  0
    1.1121    2.0222    0.0852 C   0  0  0  0  0  0
    1.0840    3.4025    0.1741 N   0  0  0  0  0  0
    3.6363    1.7053    0.0398 N   0  0  0  0  0  0
    4.3977    0.6413   -0.0359 C   0  0  0  0  0  0
    3.6134   -0.4835   -0.1004 N   0  0  0  0  0  0
    3.9263   -1.3996   -0.1623 H   0  0  0  0  0  0
    5.8758    0.6510   -0.0504 C   0  0  0  0  0  0
    6.5685    1.8591   -0.1569 C   0  0  0  0  0  0
    7.9494    1.8605   -0.1699 C   0  0  0  0  0  0
    8.6465    0.6691   -0.0778 C   0  0  0  0  0  0
    7.9671   -0.5312    0.0279 C   0  0  0  0  0  0
    6.5863   -0.5474    0.0480 C   0  0  0  0  0  0
    5.7357   -2.0543    0.1879 Cl  0  0  0  0  0  0
    5.6958    3.3552   -0.2731 Cl  0  0  0  0  0  0
   -1.2025   -0.6862   -0.0665 N   0  0  0  0  0  0
    0.2343    3.8689    0.2123 H   0  0  0  0  0  0
    1.9140    3.9040    0.1982 H   0  0  0  0  0  0
    8.4864    2.7938   -0.2525 H   0  0  0  0  0  0
    9.7264    0.6762   -0.0888 H   0  0  0  0  0  0
    8.5178   -1.4575    0.0994 H   0  0  0  0  0  0
   -2.0391   -0.1969   -0.0266 H   0  0  0  0  0  0
   -1.2092   -1.6542   -0.1289 H   0  0  0  0  0  0
  1  2  1  0  0  0
  1  6  2  0  0  0
  2  3  2  0  0  0
  2 20  1  0  0  0
  3  4  1  0  0  0
  4  5  2  0  0  0
  4 10  1  0  0  0
  5  6  1  0  0  0
  5  8  1  0  0  0
  6  7  1  0  0  0
  7 21  1  0  0  0
  7 22  1  0  0  0
  8  9  2  0  0  0
  9 10  1  0  0  0
  9 12  1  0  0  0
 10 11  1  0  0  0
 12 13  1  0  0  0
 12 17  2  0  0  0
 13 14  2  0  0  0
 13 19  1  0  0  0
 14 15  1  0  0  0
 14 23  1  0  0  0
 15 16  2  0  0  0
 15 24  1  0  0  0
 16 17  1  0  0  0
 16 25  1  0  0  0
 17 18  1  0  0  0
 20 26  1  0  0  0
 20 27  1  0  0  0
M  END
>  <Activity>
4.95861

>  <set_rl>
1

>  <Min_dist>
999.9

>  <Avg_dist>
999.9

>  <PC_uM>
11

>  <TG_uM>
11

>  <RL_uM>
11

$$$$
44-17
 Wcorina  11170919323D 1   1.00000     0.00000              
CORINA evaluation license 3.46 0067  05.08.2008
 33 36  0  0  0  0  0  0  0  0999 V2000
   -0.0159    1.3229    0.0093 N   0  0  0  0  0  0
    0.0021   -0.0041    0.0020 C   0  0  0  0  0  0
    1.1301   -0.6956   -0.0125 N   0  0  0  0  0  0
    2.3050   -0.0740   -0.0203 C   0  0  0  0  0  0
    2.3361    1.3316   -0.0131 C   0  0  0  0  0  0
    1.1112    2.0250    0.0023 C   0  0  0  0  0  0
    1.0822    3.4081    0.0096 N   0  0  0  0  0  0
    3.6354    1.7072   -0.0231 N   0  0  0  0  0  0
    4.3974    0.6411   -0.0358 C   0  0  0  0  0  0
    3.6138   -0.4862   -0.0346 N   0  0  0  0  0  0
    3.9273   -1.4041   -0.0422 H   0  0  0  0  0  0
    5.8756    0.6509   -0.0498 C   0  0  0  0  0  0
    6.5813   -0.5654   -0.0633 C   0  0  0  0  0  0
    7.9384   -0.5827   -0.0759 C   0  0  0  0  0  0
    8.6577    0.6266   -0.0760 C   0  0  0  0  0  0
    7.9575    1.8596   -0.0629 C   0  0  0  0  0  0
    6.5545    1.8575   -0.0553 C   0  0  0  0  0  0
    8.6828    3.0647   -0.0626 C   0  0  0  0  0  0
   10.0432    3.0320   -0.0748 C   0  0  0  0  0  0
   10.7311    1.8199   -0.0877 C   0  0  0  0  0  0
   10.0625    0.6341   -0.0884 C   0  0  0  0  0  0
   -1.2016   -0.6889    0.0103 N   0  0  0  0  0  0
    0.2322    3.8753    0.0199 H   0  0  0  0  0  0
    1.9119    3.9106    0.0044 H   0  0  0  0  0  0
    6.0363   -1.4979   -0.0633 H   0  0  0  0  0  0
    8.4663   -1.5248   -0.0855 H   0  0  0  0  0  0
    6.0087    2.7894   -0.0493 H   0  0  0  0  0  0
    8.1627    4.0111   -0.0531 H   0  0  0  0  0  0
   10.5979    3.9587   -0.0749 H   0  0  0  0  0  0
   11.8110    1.8215   -0.0972 H   0  0  0  0  0  0
   10.6097   -0.2970   -0.0981 H   0  0  0  0  0  0
   -2.0385   -0.1986    0.0212 H   0  0  0  0  0  0
   -1.2078   -1.6588    0.0052 H   0  0  0  0  0  0
  1  2  1  0  0  0
  1  6  2  0  0  0
  2  3  2  0  0  0
  2 22  1  0  0  0
  3  4  1  0  0  0
  4  5  2  0  0  0
  4 10  1  0  0  0
  5  6  1  0  0  0
  5  8  1  0  0  0
  6  7  1  0  0  0
  7 23  1  0  0  0
  7 24  1  0  0  0
  8  9  2  0  0  0
  9 10  1  0  0  0
  9 12  1  0  0  0
 10 11  1  0  0  0
 12 13  1  0  0  0
 12 17  2  0  0  0
 13 14  2  0  0  0
 13 25  1  0  0  0
 14 15  1  0  0  0
 14 26  1  0  0  0
 15 16  2  0  0  0
 15 21  1  0  0  0
 16 17  1  0  0  0
 16 18  1  0  0  0
 17 27  1  0  0  0
 18 19  2  0  0  0
 18 28  1  0  0  0
 19 20  1  0  0  0
 19 29  1  0  0  0
 20 21  2  0  0  0
 20 30  1  0  0  0
 21 31  1  0  0  0
 22 32  1  0  0  0
 22 33  1  0  0  0
M  END
>  <Activity>
3.55284

>  <set_rl>
1

>  <Min_dist>
999.9

>  <Avg_dist>
999.9

>  <PC_uM>
113

>  <TG_uM>
27

>  <RL_uM>
280

$$$$
44-3
 Wcorina  11170919323D 1   1.00000     0.00000              
CORINA evaluation license 3.46 0067  05.08.2008
 39 41  0  0  0  0  0  0  0  0999 V2000
   -0.0159    1.3229    0.0093 N   0  0  0  0  0  0
    0.0021   -0.0041    0.0020 C   0  0  0  0  0  0
    1.1302   -0.6954   -0.0120 N   0  0  0  0  0  0
    2.3050   -0.0736   -0.0199 C   0  0  0  0  0  0
    2.3359    1.3317   -0.0131 C   0  0  0  0  0  0
    1.1113    2.0249    0.0023 C   0  0  0  0  0  0
    1.0824    3.4082    0.0096 N   0  0  0  0  0  0
    3.6358    1.7076   -0.0229 N   0  0  0  0  0  0
    4.3979    0.6414   -0.0352 C   0  0  0  0  0  0
    3.6142   -0.4858   -0.0338 N   0  0  0  0  0  0
    3.9276   -1.4038   -0.0413 H   0  0  0  0  0  0
    5.8759    0.6510   -0.0495 C   0  0  0  0  0  0
    6.5671    1.8638   -0.0501 C   0  0  0  0  0  0
    7.9504    1.8702   -0.0635 C   0  0  0  0  0  0
    8.6527    0.6692   -0.0768 C   0  0  0  0  0  0
    7.9660   -0.5409   -0.0767 C   0  0  0  0  0  0
    6.5828   -0.5526   -0.0566 C   0  0  0  0  0  0
    8.6552   -1.7133   -0.0902 O   0  0  0  0  0  0
    7.8864   -2.9179   -0.0892 C   0  0  0  0  0  0
   10.0127    0.6781   -0.0905 O   0  0  0  0  0  0
   10.6742    0.6757    1.1762 C   0  0  0  0  0  0
    8.6243    3.0515   -0.0641 O   0  0  0  0  0  0
    7.8400    4.2459   -0.0505 C   0  0  0  0  0  0
   -1.2018   -0.6891    0.0098 N   0  0  0  0  0  0
    0.2324    3.8755    0.0199 H   0  0  0  0  0  0
    1.9121    3.9107    0.0044 H   0  0  0  0  0  0
    6.0223    2.7963   -0.0405 H   0  0  0  0  0  0
    6.0502   -1.4921   -0.0516 H   0  0  0  0  0  0
    7.2489   -2.9427   -0.9730 H   0  0  0  0  0  0
    8.5572   -3.7770   -0.1008 H   0  0  0  0  0  0
    7.2668   -2.9527    0.8069 H   0  0  0  0  0  0
   10.3927   -0.2191    1.7314 H   0  0  0  0  0  0
   11.7533    0.6835    1.0226 H   0  0  0  0  0  0
   10.3812    1.5608    1.7408 H   0  0  0  0  0  0
    7.2197    4.2631    0.8456 H   0  0  0  0  0  0
    8.4995    5.1137   -0.0526 H   0  0  0  0  0  0
    7.2024    4.2720   -0.9342 H   0  0  0  0  0  0
   -2.0387   -0.1988    0.0205 H   0  0  0  0  0  0
   -1.2079   -1.6590    0.0047 H   0  0  0  0  0  0
  1  2  1  0  0  0
  1  6  2  0  0  0
  2  3  2  0  0  0
  2 24  1  0  0  0
  3  4  1  0  0  0
  4  5  2  0  0  0
  4 10  1  0  0  0
  5  6  1  0  0  0
  5  8  1  0  0  0
  6  7  1  0  0  0
  7 25  1  0  0  0
  7 26  1  0  0  0
  8  9  2  0  0  0
  9 10  1  0  0  0
  9 12  1  0  0  0
 10 11  1  0  0  0
 12 13  1  0  0  0
 12 17  2  0  0  0
 13 14  2  0  0  0
 13 27  1  0  0  0
 14 15  1  0  0  0
 14 22  1  0  0  0
 15 16  2  0  0  0
 15 20  1  0  0  0
 16 17  1  0  0  0
 16 18  1  0  0  0
 17 28  1  0  0  0
 18 19  1  0  0  0
 19 29  1  0  0  0
 19 30  1  0  0  0
 19 31  1  0  0  0
 20 21  1  0  0  0
 21 32  1  0  0  0
 21 33  1  0  0  0
 21 34  1  0  0  0
 22 23  1  0  0  0
 23 35  1  0  0  0
 23 36  1  0  0  0
 23 37  1  0  0  0
 24 38  1  0  0  0
 24 39  1  0  0  0
M  END
>  <Activity>
4.88606

>  <set_rl>
1

>  <Min_dist>
999.9

>  <Avg_dist>
999.9

>  <PC_uM>
59.4

>  <TG_uM>
2.2

>  <RL_uM>
13

$$$$
44-6
 Wcorina  11170919323D 1   1.00000     0.00000              
CORINA evaluation license 3.46 0067  05.08.2008
 39 41  0  0  0  0  0  0  0  0999 V2000
   -0.0159    1.3228    0.0093 N   0  0  0  0  0  0
    0.0021   -0.0041    0.0020 C   0  0  0  0  0  0
    1.1303   -0.6952   -0.0125 N   0  0  0  0  0  0
    2.3050   -0.0732   -0.0203 C   0  0  0  0  0  0
    2.3358    1.3317   -0.0131 C   0  0  0  0  0  0
    1.1115    2.0248    0.0023 C   0  0  0  0  0  0
    1.0826    3.4084    0.0096 N   0  0  0  0  0  0
    3.6362    1.7082   -0.0231 N   0  0  0  0  0  0
    4.3987    0.6414   -0.0358 C   0  0  0  0  0  0
    3.6146   -0.4858   -0.0346 N   0  0  0  0  0  0
    3.9279   -1.4038   -0.0427 H   0  0  0  0  0  0
    5.8752    0.6509   -0.0498 C   0  0  0  0  0  0
    6.5836   -0.5532   -0.0633 C   0  0  0  0  0  0
    7.9645   -0.5396   -0.0768 C   0  0  0  0  0  0
    8.6521    0.6730   -0.0771 C   0  0  0  0  0  0
    7.9543    1.8703   -0.0633 C   0  0  0  0  0  0
    6.5696    1.8668   -0.0555 C   0  0  0  0  0  0
    5.8862    3.0409   -0.0477 O   0  0  0  0  0  0
    6.6601    4.2421   -0.0541 C   0  0  0  0  0  0
   10.0111    0.6811   -0.0905 O   0  0  0  0  0  0
   10.6522    1.9582   -0.0899 C   0  0  0  0  0  0
    8.6551   -1.7119   -0.0895 O   0  0  0  0  0  0
    7.8874   -2.9172   -0.0879 C   0  0  0  0  0  0
   -1.2019   -0.6893    0.0103 N   0  0  0  0  0  0
    0.2326    3.8757    0.0199 H   0  0  0  0  0  0
    1.9123    3.9109    0.0044 H   0  0  0  0  0  0
    6.0521   -1.4934   -0.0627 H   0  0  0  0  0  0
    8.4912    2.8074   -0.0629 H   0  0  0  0  0  0
    5.9931    5.1042   -0.0467 H   0  0  0  0  0  0
    7.2976    4.2684    0.8296 H   0  0  0  0  0  0
    7.2800    4.2701   -0.9502 H   0  0  0  0  0  0
   10.3473    2.5182   -0.9739 H   0  0  0  0  0  0
   10.3649    2.5086    0.8059 H   0  0  0  0  0  0
   11.7336    1.8218   -0.1013 H   0  0  0  0  0  0
    8.5590   -3.7757   -0.0989 H   0  0  0  0  0  0
    7.2677   -2.9521    0.8080 H   0  0  0  0  0  0
    7.2501   -2.9432   -0.9718 H   0  0  0  0  0  0
   -2.0388   -0.1991    0.0212 H   0  0  0  0  0  0
   -1.2080   -1.6592    0.0052 H   0  0  0  0  0  0
  1  2  1  0  0  0
  1  6  2  0  0  0
  2  3  2  0  0  0
  2 24  1  0  0  0
  3  4  1  0  0  0
  4  5  2  0  0  0
  4 10  1  0  0  0
  5  6  1  0  0  0
  5  8  1  0  0  0
  6  7  1  0  0  0
  7 25  1  0  0  0
  7 26  1  0  0  0
  8  9  2  0  0  0
  9 10  1  0  0  0
  9 12  1  0  0  0
 10 11  1  0  0  0
 12 13  1  0  0  0
 12 17  2  0  0  0
 13 14  2  0  0  0
 13 27  1  0  0  0
 14 15  1  0  0  0
 14 22  1  0  0  0
 15 16  2  0  0  0
 15 20  1  0  0  0
 16 17  1  0  0  0
 16 28  1  0  0  0
 17 18  1  0  0  0
 18 19  1  0  0  0
 19 29  1  0  0  0
 19 30  1  0  0  0
 19 31  1  0  0  0
 20 21  1  0  0  0
 21 32  1  0  0  0
 21 33  1  0  0  0
 21 34  1  0  0  0
 22 23  1  0  0  0
 23 35  1  0  0  0
 23 36  1  0  0  0
 23 37  1  0  0  0
 24 38  1  0  0  0
 24 39  1  0  0  0
M  END
>  <Activity>
5.1549

>  <set_rl>
1

>  <Min_dist>
999.9

>  <Avg_dist>
999.9

>  <PC_uM>
22

>  <TG_uM>
1.5

>  <RL_uM>
7

$$$$
44-22
 Wcorina  11170919323D 1   1.00000     0.00000              
CORINA evaluation license 3.46 0067  05.08.2008
 40 42  0  0  0  0  0  0  0  0999 V2000
   -0.0159    1.3229    0.0093 N   0  0  0  0  0  0
    0.0021   -0.0041    0.0020 C   0  0  0  0  0  0
    1.1302   -0.6949   -0.0125 N   0  0  0  0  0  0
    2.3048   -0.0720   -0.0203 C   0  0  0  0  0  0
    2.3348    1.3320   -0.0131 C   0  0  0  0  0  0
    1.1116    2.0248    0.0023 C   0  0  0  0  0  0
    1.0829    3.4081    0.0096 N   0  0  0  0  0  0
    3.6386    1.7040   -0.0235 N   0  0  0  0  0  0
    4.3914    0.6431   -0.0364 C   0  0  0  0  0  0
    3.6149   -0.4788   -0.0350 N   0  0  0  0  0  0
    3.9312   -1.3958   -0.0427 H   0  0  0  0  0  0
    5.8983    0.6520   -0.0512 C   0  0  0  0  0  0
    6.3723    0.7830   -1.4312 N   0  0  0  0  0  0
    7.7455    0.8148   -1.6993 C   0  0  0  0  0  0
    8.6588    0.7225   -0.6595 C   0  0  0  0  0  0
   10.0186    0.7538   -0.9283 C   0  0  0  0  0  0
   10.4655    0.8778   -2.2355 C   0  0  0  0  0  0
    9.5569    0.9705   -3.2736 C   0  0  0  0  0  0
    8.1977    0.9335   -3.0115 C   0  0  0  0  0  0
    7.3043    1.0186   -4.0346 O   0  0  0  0  0  0
    7.8388    1.1384   -5.3544 C   0  0  0  0  0  0
   10.9147    0.6634    0.0904 O   0  0  0  0  0  0
   12.2999    0.7023   -0.2587 C   0  0  0  0  0  0
   -1.2017   -0.6893    0.0103 N   0  0  0  0  0  0
    0.2330    3.8755    0.0199 H   0  0  0  0  0  0
    1.9127    3.9104    0.0043 H   0  0  0  0  0  0
    6.2625    1.4926    0.5394 H   0  0  0  0  0  0
    6.2713   -0.2796    0.3742 H   0  0  0  0  0  0
    5.7344    0.8476   -2.1591 H   0  0  0  0  0  0
    8.3111    0.6266    0.3585 H   0  0  0  0  0  0
   11.5251    0.9024   -2.4428 H   0  0  0  0  0  0
    9.9077    1.0673   -4.2905 H   0  0  0  0  0  0
    7.0217    1.1971   -6.0734 H   0  0  0  0  0  0
    8.4460    2.0413   -5.4199 H   0  0  0  0  0  0
    8.4565    0.2683   -5.5766 H   0  0  0  0  0  0
   12.5299   -0.1285   -0.9258 H   0  0  0  0  0  0
   12.5216    1.6439   -0.7611 H   0  0  0  0  0  0
   12.9046    0.6212    0.6445 H   0  0  0  0  0  0
   -2.0387   -0.1992    0.0212 H   0  0  0  0  0  0
   -1.2077   -1.6593    0.0052 H   0  0  0  0  0  0
  1  2  1  0  0  0
  1  6  2  0  0  0
  2  3  2  0  0  0
  2 24  1  0  0  0
  3  4  1  0  0  0
  4  5  2  0  0  0
  4 10  1  0  0  0
  5  6  1  0  0  0
  5  8  1  0  0  0
  6  7  1  0  0  0
  7 25  1  0  0  0
  7 26  1  0  0  0
  8  9  2  0  0  0
  9 10  1  0  0  0
  9 12  1  0  0  0
 10 11  1  0  0  0
 12 13  1  0  0  0
 12 27  1  0  0  0
 12 28  1  0  0  0
 13 14  1  0  0  0
 13 29  1  0  0  0
 14 15  1  0  0  0
 14 19  2  0  0  0
 15 16  2  0  0  0
 15 30  1  0  0  0
 16 17  1  0  0  0
 16 22  1  0  0  0
 17 18  2  0  0  0
 17 31  1  0  0  0
 18 19  1  0  0  0
 18 32  1  0  0  0
 19 20  1  0  0  0
 20 21  1  0  0  0
 21 33  1  0  0  0
 21 34  1  0  0  0
 21 35  1  0  0  0
 22 23  1  0  0  0
 23 36  1  0  0  0
 23 37  1  0  0  0
 23 38  1  0  0  0
 24 39  1  0  0  0
 24 40  1  0  0  0
M  END
>  <Activity>
4.5376

>  <set_rl>
1

>  <Min_dist>
999.9

>  <Avg_dist>
999.9

>  <PC_uM>
29

>  <TG_uM>
49

>  <RL_uM>
29

$$$$
