MOL_07
 Wcorina  06231023583D 1   1.00000     0.00000              
CORINA evaluation license 3.48 0067  22.01.2010
 32 32  0  0  0  0  0  0  0  0999 V2000
   -0.0180    1.4758    0.0102 P   0  0  0  0  0  0  0  0  0  0  0  0
    0.0021   -0.0041    0.0020 O   0  0  0  0  0  0  0  0  0  0  0  0
    1.5609    2.0583   -0.0018 N   0  0  0  0  0  0  0  0  0  0  0  0
    1.5802    3.5272    0.0059 C   0  0  0  0  0  0  0  0  0  0  0  0
    1.7263    4.0278    1.4443 C   0  0  0  0  0  0  0  0  0  0  0  0
    2.7427    4.0186   -0.8175 C   0  0  0  0  0  0  0  0  0  0  0  0
    3.4824    3.2235   -1.3576 O   0  0  0  0  0  0  0  0  0  0  0  0
    2.9605    5.3417   -0.9538 N   0  0  0  0  0  0  0  0  0  0  0  0
    4.0517    5.9556   -1.7245 C   0  0  0  0  0  0  0  0  0  0  0  0
    3.8840    7.4859   -1.6169 C   0  0  0  0  0  0  0  0  0  0  0  0
    2.3823    7.6468   -1.2611 C   0  0  0  0  0  0  0  0  0  0  0  0
    2.1402    6.4131   -0.3599 C   0  0  0  0  0  0  0  0  0  0  0  0
    5.3815    5.5439   -1.1473 C   0  0  0  0  0  0  0  0  0  0  0  0
    5.4227    4.8109   -0.1877 O   0  0  0  0  0  0  0  0  0  0  0  0
    6.5202    5.9916   -1.6993 O   0  0  0  0  0  0  0  0  0  0  0  0
   -0.7967    2.0091   -1.2942 O   0  0  0  0  0  0  0  0  0  0  0  0
   -0.7716    1.9950    1.3348 O   0  0  0  0  0  0  0  0  0  0  0  0
    2.0897    1.6857    0.7726 H   0  0  0  0  0  0  0  0  0  0  0  0
    0.6496    3.9050   -0.4175 H   0  0  0  0  0  0  0  0  0  0  0  0
    1.7406    5.1176    1.4500 H   0  0  0  0  0  0  0  0  0  0  0  0
    0.8855    3.6723    2.0399 H   0  0  0  0  0  0  0  0  0  0  0  0
    2.6570    3.6500    1.8677 H   0  0  0  0  0  0  0  0  0  0  0  0
    3.9870    5.6480   -2.7682 H   0  0  0  0  0  0  0  0  0  0  0  0
    4.5136    7.8880   -0.8232 H   0  0  0  0  0  0  0  0  0  0  0  0
    4.1083    7.9663   -2.5693 H   0  0  0  0  0  0  0  0  0  0  0  0
    2.2076    8.5730   -0.7137 H   0  0  0  0  0  0  0  0  0  0  0  0
    1.7617    7.6006   -2.1560 H   0  0  0  0  0  0  0  0  0  0  0  0
    1.0863    6.1349   -0.3720 H   0  0  0  0  0  0  0  0  0  0  0  0
    2.4670    6.6205    0.6590 H   0  0  0  0  0  0  0  0  0  0  0  0
    7.3485    5.7003   -1.2942 H   0  0  0  0  0  0  0  0  0  0  0  0
   -0.8486    2.9728   -1.3546 H   0  0  0  0  0  0  0  0  0  0  0  0
   -1.6885    1.6968    1.4081 H   0  0  0  0  0  0  0  0  0  0  0  0
  1  2  2  0  0  0  0
  1  3  1  0  0  0  0
  1 16  1  0  0  0  0
  1 17  1  0  0  0  0
  3  4  1  0  0  0  0
  3 18  1  0  0  0  0
  4  5  1  0  0  0  0
  4  6  1  0  0  0  0
  4 19  1  0  0  0  0
  5 20  1  0  0  0  0
  5 21  1  0  0  0  0
  5 22  1  0  0  0  0
  6  7  2  0  0  0  0
  6  8  1  0  0  0  0
  8  9  1  0  0  0  0
  8 12  1  0  0  0  0
  9 10  1  0  0  0  0
  9 13  1  0  0  0  0
  9 23  1  0  0  0  0
 10 11  1  0  0  0  0
 10 24  1  0  0  0  0
 10 25  1  0  0  0  0
 11 12  1  0  0  0  0
 11 26  1  0  0  0  0
 11 27  1  0  0  0  0
 12 28  1  0  0  0  0
 12 29  1  0  0  0  0
 13 14  2  0  0  0  0
 13 15  1  0  0  0  0
 15 30  1  0  0  0  0
 16 31  1  0  0  0  0
 17 32  1  0  0  0  0
M  END
>  <Activity>
6.11

>  <set>
1

>  <Min_dist>
999.9

>  <Avg_dist>
999.9

$$$$
MOL_08
 Wcorina  06231023583D 1   1.00000     0.00000              
CORINA evaluation license 3.48 0067  22.01.2010
 30 31  0  0  0  0  0  0  0  0999 V2000
   -0.0171    1.4121    0.0098 N   0  0  0  0  0  0  0  0  0  0  0  0
    0.0021   -0.0041    0.0020 N   0  0  0  0  0  0  0  0  0  0  0  0
    1.2695   -0.7401   -0.0144 C   0  0  0  0  0  0  0  0  0  0  0  0
    2.2804    0.0778    0.7567 C   0  0  0  0  0  0  0  0  0  0  0  0
    2.2628    1.3836    0.7638 C   0  0  0  0  0  0  0  0  0  0  0  0
    1.2299    2.1823    0.0020 C   0  0  0  0  0  0  0  0  0  0  0  0
    1.6919    2.3939   -1.4167 C   0  0  0  0  0  0  0  0  0  0  0  0
    1.0464    1.9471   -2.3352 O   0  0  0  0  0  0  0  0  0  0  0  0
    2.8204    3.0786   -1.6600 O   0  0  0  0  0  0  0  0  0  0  0  0
   -1.2647   -0.4155    0.0127 C   0  0  0  0  0  0  0  0  0  0  0  0
   -1.6391   -1.5718    0.0110 O   0  0  0  0  0  0  0  0  0  0  0  0
   -2.0615    0.6760    0.0267 N   0  0  0  0  0  0  0  0  0  0  0  0
   -1.2946    1.7888    0.0295 C   0  0  0  0  0  0  0  0  0  0  0  0
   -1.7002    2.9345    0.0414 O   0  0  0  0  0  0  0  0  0  0  0  0
   -3.5263    0.6561    0.0409 C   0  0  0  0  0  0  0  0  0  0  0  0
   -4.0222    0.6416    1.4882 C   0  0  0  0  0  0  0  0  0  0  0  0
   -5.5289    0.6210    1.5028 C   0  0  0  0  0  0  0  0  0  0  0  0
   -6.1432    0.6183    0.4624 O   0  0  0  0  0  0  0  0  0  0  0  0
   -6.1887    0.6058    2.6717 O   0  0  0  0  0  0  0  0  0  0  0  0
    1.1393   -1.7120    0.4615 H   0  0  0  0  0  0  0  0  0  0  0  0
    1.6072   -0.8727   -1.0423 H   0  0  0  0  0  0  0  0  0  0  0  0
    3.0440   -0.4359    1.3218 H   0  0  0  0  0  0  0  0  0  0  0  0
    3.0123    1.9116    1.3347 H   0  0  0  0  0  0  0  0  0  0  0  0
    1.0734    3.1450    0.4886 H   0  0  0  0  0  0  0  0  0  0  0  0
   -3.9067    1.5437   -0.4646 H   0  0  0  0  0  0  0  0  0  0  0  0
   -3.8825   -0.2360   -0.4742 H   0  0  0  0  0  0  0  0  0  0  0  0
   -3.6418   -0.2461    1.9937 H   0  0  0  0  0  0  0  0  0  0  0  0
   -3.6659    1.5337    2.0033 H   0  0  0  0  0  0  0  0  0  0  0  0
    3.0763    3.1885   -2.5861 H   0  0  0  0  0  0  0  0  0  0  0  0
   -7.1547    0.5929    2.6304 H   0  0  0  0  0  0  0  0  0  0  0  0
  1  2  1  0  0  0  0
  1  6  1  0  0  0  0
  1 13  1  0  0  0  0
  2  3  1  0  0  0  0
  2 10  1  0  0  0  0
  3  4  1  0  0  0  0
  3 20  1  0  0  0  0
  3 21  1  0  0  0  0
  4  5  2  0  0  0  0
  4 22  1  0  0  0  0
  5  6  1  0  0  0  0
  5 23  1  0  0  0  0
  6  7  1  0  0  0  0
  6 24  1  0  0  0  0
  7  8  2  0  0  0  0
  7  9  1  0  0  0  0
  9 29  1  0  0  0  0
 10 11  2  0  0  0  0
 10 12  1  0  0  0  0
 12 13  1  0  0  0  0
 12 15  1  0  0  0  0
 13 14  2  0  0  0  0
 15 16  1  0  0  0  0
 15 25  1  0  0  0  0
 15 26  1  0  0  0  0
 16 17  1  0  0  0  0
 16 27  1  0  0  0  0
 16 28  1  0  0  0  0
 17 18  2  0  0  0  0
 17 19  1  0  0  0  0
 19 30  1  0  0  0  0
M  END
>  <Activity>
9

>  <set>
1

>  <Min_dist>
999.9

>  <Avg_dist>
999.9

$$$$
MOL_09
 Wcorina  06231023583D 1   1.00000     0.00000              
CORINA evaluation license 3.48 0067  22.01.2010
 29 29  0  0  0  0  0  0  0  0999 V2000
   -0.0225    1.8097    0.0120 S   0  0  0  0  0  0  0  0  0  0  0  0
    0.0021   -0.0041    0.0020 C   0  0  0  0  0  0  0  0  0  0  0  0
   -1.4333   -0.5336    0.0129 C   0  0  0  0  0  0  0  0  0  0  0  0
   -1.4136   -2.0361    0.1285 C   0  0  0  0  0  0  0  0  0  0  0  0
   -0.3556   -2.6253    0.1955 O   0  0  0  0  0  0  0  0  0  0  0  0
   -2.5716   -2.7250    0.1573 N   0  0  0  0  0  0  0  0  0  0  0  0
   -2.6971   -4.1858    0.2667 C   0  0  0  0  0  0  0  0  0  0  0  0
   -4.2044   -4.5158    0.2890 C   0  0  0  0  0  0  0  0  0  0  0  0
   -4.8448   -3.1836    0.7608 C   0  0  0  0  0  0  0  0  0  0  0  0
   -3.9223   -2.1382    0.0908 C   0  0  0  0  0  0  0  0  0  0  0  0
   -2.0453   -4.8465   -0.9206 C   0  0  0  0  0  0  0  0  0  0  0  0
   -1.5254   -4.1717   -1.7775 O   0  0  0  0  0  0  0  0  0  0  0  0
   -2.0424   -6.1846   -1.0262 O   0  0  0  0  0  0  0  0  0  0  0  0
   -2.1352   -0.1312   -1.2857 C   0  0  0  0  0  0  0  0  0  0  0  0
    1.2837    2.1301    0.0012 H   0  0  0  0  0  0  0  0  0  0  0  0
    0.5123   -0.3556   -0.8948 H   0  0  0  0  0  0  0  0  0  0  0  0
    0.5293   -0.3651    0.8851 H   0  0  0  0  0  0  0  0  0  0  0  0
   -1.9701   -0.1109    0.8621 H   0  0  0  0  0  0  0  0  0  0  0  0
   -2.2285   -4.5301    1.1886 H   0  0  0  0  0  0  0  0  0  0  0  0
   -4.5560   -4.7808   -0.7081 H   0  0  0  0  0  0  0  0  0  0  0  0
   -4.4134   -5.3166    0.9983 H   0  0  0  0  0  0  0  0  0  0  0  0
   -5.8689   -3.0927    0.3988 H   0  0  0  0  0  0  0  0  0  0  0  0
   -4.8065   -3.0947    1.8465 H   0  0  0  0  0  0  0  0  0  0  0  0
   -3.9543   -1.1966    0.6390 H   0  0  0  0  0  0  0  0  0  0  0  0
   -4.2184   -1.9841   -0.9469 H   0  0  0  0  0  0  0  0  0  0  0  0
   -1.5984   -0.5539   -2.1349 H   0  0  0  0  0  0  0  0  0  0  0  0
   -3.1578   -0.5085   -1.2779 H   0  0  0  0  0  0  0  0  0  0  0  0
   -2.1495    0.9555   -1.3693 H   0  0  0  0  0  0  0  0  0  0  0  0
   -1.6122   -6.5626   -1.8055 H   0  0  0  0  0  0  0  0  0  0  0  0
  1  2  1  0  0  0  0
  1 15  1  0  0  0  0
  2  3  1  0  0  0  0
  2 16  1  0  0  0  0
  2 17  1  0  0  0  0
  3  4  1  0  0  0  0
  3 14  1  0  0  0  0
  3 18  1  0  0  0  0
  4  5  2  0  0  0  0
  4  6  1  0  0  0  0
  6  7  1  0  0  0  0
  6 10  1  0  0  0  0
  7  8  1  0  0  0  0
  7 11  1  0  0  0  0
  7 19  1  0  0  0  0
  8  9  1  0  0  0  0
  8 20  1  0  0  0  0
  8 21  1  0  0  0  0
  9 10  1  0  0  0  0
  9 22  1  0  0  0  0
  9 23  1  0  0  0  0
 10 24  1  0  0  0  0
 10 25  1  0  0  0  0
 11 12  2  0  0  0  0
 11 13  1  0  0  0  0
 13 29  1  0  0  0  0
 14 26  1  0  0  0  0
 14 27  1  0  0  0  0
 14 28  1  0  0  0  0
M  END
>  <Activity>
7.64

>  <set>
1

>  <Min_dist>
999.9

>  <Avg_dist>
999.9

$$$$
MOL_12
 Wcorina  06231023583D 1   1.00000     0.00000              
CORINA evaluation license 3.48 0067  22.01.2010
 30 31  0  0  0  0  0  0  0  0999 V2000
   -0.0225    1.8097    0.0120 S   0  0  0  0  0  0  0  0  0  0  0  0
    0.0021   -0.0041    0.0020 C   0  0  0  0  0  0  0  0  0  0  0  0
   -1.3984   -0.6392    0.0120 C   0  0  0  0  0  0  0  0  0  0  0  0
   -0.8508   -1.6727   -0.9864 C   0  0  0  0  0  0  0  0  0  0  0  0
    0.1809   -0.6100   -1.4000 C   0  0  0  0  0  0  0  0  0  0  0  0
   -1.7834   -1.2311    1.3433 C   0  0  0  0  0  0  0  0  0  0  0  0
   -1.0116   -1.1762    2.2773 O   0  0  0  0  0  0  0  0  0  0  0  0
   -2.9853   -1.8215    1.4961 N   0  0  0  0  0  0  0  0  0  0  0  0
   -3.4867   -2.4365    2.7338 C   0  0  0  0  0  0  0  0  0  0  0  0
   -4.9106   -2.9556    2.4432 C   0  0  0  0  0  0  0  0  0  0  0  0
   -5.3494   -2.1026    1.2237 C   0  0  0  0  0  0  0  0  0  0  0  0
   -4.0175   -1.9518    0.4516 C   0  0  0  0  0  0  0  0  0  0  0  0
   -2.5948   -3.5834    3.1340 C   0  0  0  0  0  0  0  0  0  0  0  0
   -1.6338   -3.8657    2.4583 O   0  0  0  0  0  0  0  0  0  0  0  0
   -2.8680   -4.2913    4.2413 O   0  0  0  0  0  0  0  0  0  0  0  0
    1.2837    2.1301    0.0012 H   0  0  0  0  0  0  0  0  0  0  0  0
    0.6765   -0.4223    0.7492 H   0  0  0  0  0  0  0  0  0  0  0  0
   -2.1726    0.0042   -0.4061 H   0  0  0  0  0  0  0  0  0  0  0  0
   -0.4091   -2.5482   -0.5105 H   0  0  0  0  0  0  0  0  0  0  0  0
   -1.5542   -1.9299   -1.7784 H   0  0  0  0  0  0  0  0  0  0  0  0
   -0.1615    0.0413   -2.2041 H   0  0  0  0  0  0  0  0  0  0  0  0
    1.1775   -1.0146   -1.5770 H   0  0  0  0  0  0  0  0  0  0  0  0
   -3.5185   -1.6933    3.5306 H   0  0  0  0  0  0  0  0  0  0  0  0
   -4.8900   -4.0146    2.1857 H   0  0  0  0  0  0  0  0  0  0  0  0
   -5.5673   -2.7775    3.2948 H   0  0  0  0  0  0  0  0  0  0  0  0
   -6.0925   -2.6297    0.6253 H   0  0  0  0  0  0  0  0  0  0  0  0
   -5.7248   -1.1300    1.5420 H   0  0  0  0  0  0  0  0  0  0  0  0
   -4.0397   -1.0591   -0.1733 H   0  0  0  0  0  0  0  0  0  0  0  0
   -3.8320   -2.8371   -0.1566 H   0  0  0  0  0  0  0  0  0  0  0  0
   -2.2672   -5.0176    4.4573 H   0  0  0  0  0  0  0  0  0  0  0  0
  1  2  1  0  0  0  0
  1 16  1  0  0  0  0
  2  3  1  0  0  0  0
  2  5  1  0  0  0  0
  2 17  1  0  0  0  0
  3  4  1  0  0  0  0
  3  6  1  0  0  0  0
  3 18  1  0  0  0  0
  4  5  1  0  0  0  0
  4 19  1  0  0  0  0
  4 20  1  0  0  0  0
  5 21  1  0  0  0  0
  5 22  1  0  0  0  0
  6  7  2  0  0  0  0
  6  8  1  0  0  0  0
  8  9  1  0  0  0  0
  8 12  1  0  0  0  0
  9 10  1  0  0  0  0
  9 13  1  0  0  0  0
  9 23  1  0  0  0  0
 10 11  1  0  0  0  0
 10 24  1  0  0  0  0
 10 25  1  0  0  0  0
 11 12  1  0  0  0  0
 11 26  1  0  0  0  0
 11 27  1  0  0  0  0
 12 28  1  0  0  0  0
 12 29  1  0  0  0  0
 13 14  2  0  0  0  0
 13 15  1  0  0  0  0
 15 30  1  0  0  0  0
M  END
>  <Activity>
7.31

>  <set>
1

>  <Min_dist>
999.9

>  <Avg_dist>
999.9

$$$$
MOL_14
 Wcorina  06231023583D 1   1.00000     0.00000              
CORINA evaluation license 3.48 0067  22.01.2010
 46 47  0  0  0  0  0  0  0  0999 V2000
   -0.0225    1.8097    0.0120 S   0  0  0  0  0  0  0  0  0  0  0  0
    0.0021   -0.0041    0.0020 C   0  0  0  0  0  0  0  0  0  0  0  0
    0.7182   -0.4975   -1.2568 C   0  0  0  0  0  0  0  0  0  0  0  0
   -0.0771   -0.1029   -2.4745 C   0  0  0  0  0  0  0  0  0  0  0  0
    0.1626    1.1097   -3.0934 C   0  0  0  0  0  0  0  0  0  0  0  0
   -0.5670    1.4717   -4.2104 C   0  0  0  0  0  0  0  0  0  0  0  0
   -1.5359    0.6210   -4.7087 C   0  0  0  0  0  0  0  0  0  0  0  0
   -1.7750   -0.5920   -4.0902 C   0  0  0  0  0  0  0  0  0  0  0  0
   -1.0424   -0.9559   -2.9758 C   0  0  0  0  0  0  0  0  0  0  0  0
    0.7309   -0.5033    1.2229 C   0  0  0  0  0  0  0  0  0  0  0  0
    1.9396   -0.6027    1.2092 O   0  0  0  0  0  0  0  0  0  0  0  0
    0.0397   -0.8393    2.3300 N   0  0  0  0  0  0  0  0  0  0  0  0
    0.7482   -1.3246    3.5169 C   0  0  0  0  0  0  0  0  0  0  0  0
    1.2208   -0.1327    4.3516 C   0  0  0  0  0  0  0  0  0  0  0  0
   -0.1797   -2.1791    4.3415 C   0  0  0  0  0  0  0  0  0  0  0  0
   -1.3205   -2.3644    3.9740 O   0  0  0  0  0  0  0  0  0  0  0  0
    0.2582   -2.7373    5.4874 N   0  0  0  0  0  0  0  0  0  0  0  0
   -0.5369   -3.5886    6.3843 C   0  0  0  0  0  0  0  0  0  0  0  0
    0.3843   -4.0158    7.5465 C   0  0  0  0  0  0  0  0  0  0  0  0
    1.8043   -3.8449    6.9452 C   0  0  0  0  0  0  0  0  0  0  0  0
    1.6158   -2.6005    6.0458 C   0  0  0  0  0  0  0  0  0  0  0  0
   -1.7116   -2.8117    6.9205 C   0  0  0  0  0  0  0  0  0  0  0  0
   -1.8758   -1.6608    6.5912 O   0  0  0  0  0  0  0  0  0  0  0  0
   -2.5756   -3.3983    7.7638 O   0  0  0  0  0  0  0  0  0  0  0  0
    1.2837    2.1301    0.0012 H   0  0  0  0  0  0  0  0  0  0  0  0
   -1.0205   -0.3814    0.0098 H   0  0  0  0  0  0  0  0  0  0  0  0
    1.7103   -0.0491   -1.3098 H   0  0  0  0  0  0  0  0  0  0  0  0
    0.8116   -1.5829   -1.2198 H   0  0  0  0  0  0  0  0  0  0  0  0
    0.9196    1.7744   -2.7042 H   0  0  0  0  0  0  0  0  0  0  0  0
   -0.3802    2.4194   -4.6936 H   0  0  0  0  0  0  0  0  0  0  0  0
   -2.1064    0.9041   -5.5809 H   0  0  0  0  0  0  0  0  0  0  0  0
   -2.5322   -1.2565   -4.4793 H   0  0  0  0  0  0  0  0  0  0  0  0
   -1.2266   -1.9052   -2.4949 H   0  0  0  0  0  0  0  0  0  0  0  0
   -0.9270   -0.7598    2.3410 H   0  0  0  0  0  0  0  0  0  0  0  0
    1.6099   -1.9169    3.2088 H   0  0  0  0  0  0  0  0  0  0  0  0
    0.3591    0.4596    4.6597 H   0  0  0  0  0  0  0  0  0  0  0  0
    1.7480   -0.4938    5.2347 H   0  0  0  0  0  0  0  0  0  0  0  0
    1.8919    0.4853    3.7552 H   0  0  0  0  0  0  0  0  0  0  0  0
   -0.8869   -4.4693    5.8458 H   0  0  0  0  0  0  0  0  0  0  0  0
    0.2485   -3.3608    8.4070 H   0  0  0  0  0  0  0  0  0  0  0  0
    0.2037   -5.0555    7.8196 H   0  0  0  0  0  0  0  0  0  0  0  0
    2.5397   -3.6560    7.7273 H   0  0  0  0  0  0  0  0  0  0  0  0
    2.0839   -4.7142    6.3500 H   0  0  0  0  0  0  0  0  0  0  0  0
    2.3562   -2.5944    5.2458 H   0  0  0  0  0  0  0  0  0  0  0  0
    1.6914   -1.6903    6.6407 H   0  0  0  0  0  0  0  0  0  0  0  0
   -3.3135   -2.8598    8.0811 H   0  0  0  0  0  0  0  0  0  0  0  0
  1  2  1  0  0  0  0
  1 25  1  0  0  0  0
  2  3  1  0  0  0  0
  2 10  1  0  0  0  0
  2 26  1  0  0  0  0
  3  4  1  0  0  0  0
  3 27  1  0  0  0  0
  3 28  1  0  0  0  0
  4  5  1  0  0  0  0
  4  9  2  0  0  0  0
  5  6  2  0  0  0  0
  5 29  1  0  0  0  0
  6  7  1  0  0  0  0
  6 30  1  0  0  0  0
  7  8  2  0  0  0  0
  7 31  1  0  0  0  0
  8  9  1  0  0  0  0
  8 32  1  0  0  0  0
  9 33  1  0  0  0  0
 10 11  2  0  0  0  0
 10 12  1  0  0  0  0
 12 13  1  0  0  0  0
 12 34  1  0  0  0  0
 13 14  1  0  0  0  0
 13 15  1  0  0  0  0
 13 35  1  0  0  0  0
 14 36  1  0  0  0  0
 14 37  1  0  0  0  0
 14 38  1  0  0  0  0
 15 16  2  0  0  0  0
 15 17  1  0  0  0  0
 17 18  1  0  0  0  0
 17 21  1  0  0  0  0
 18 19  1  0  0  0  0
 18 22  1  0  0  0  0
 18 39  1  0  0  0  0
 19 20  1  0  0  0  0
 19 40  1  0  0  0  0
 19 41  1  0  0  0  0
 20 21  1  0  0  0  0
 20 42  1  0  0  0  0
 20 43  1  0  0  0  0
 21 44  1  0  0  0  0
 21 45  1  0  0  0  0
 22 23  2  0  0  0  0
 22 24  1  0  0  0  0
 24 46  1  0  0  0  0
M  END
>  <Activity>
7.3

>  <set>
1

>  <Min_dist>
999.9

>  <Avg_dist>
999.9

$$$$